<?xml version="1.0" encoding="UTF-8"?>

<!-- generated on 2024-05-22 16:50:29 by Eclipse SUMO duarouter Version 1.18.0
<configuration xmlns:xsi="http://www.w3.org/2001/XMLSchema-instance" xsi:noNamespaceSchemaLocation="http://sumo.dlr.de/xsd/duarouterConfiguration.xsd">

    <input>
        <net-file value="2x2.net.xml"/>
        <route-files value="trip.trip.xml"/>
    </input>

    <output>
        <output-file value="Demand_20.rou.xml"/>
    </output>

    <processing>
        <randomize-flows value="true"/>
        <weights.random-factor value="1.5"/>
    </processing>

    <defaults>
        <departspeed value="10"/>
    </defaults>

    <random_number>
        <seed value="30"/>
    </random_number>

</configuration>
-->

<routes xmlns:xsi="http://www.w3.org/2001/XMLSchema-instance" xsi:noNamespaceSchemaLocation="http://sumo.dlr.de/xsd/routes_file.xsd">
    <vType id="NV" length="5.00" minGap="2.00" maxSpeed="60.00" speedFactor="normc(1.00,0.00)" guiShape="passenger" color="green" accel="3" decel="5" sigma="0.5" tau="1.0"/>
    <vehicle id="OD10_NV.0" type="NV" depart="1.27" departSpeed="10">
        <route edges="-3 -2 -7"/>
    </vehicle>
    <vType id="RV" length="5.00" minGap="2.00" maxSpeed="60.00" speedFactor="normc(1.00,0.00)" guiShape="passenger" color="red" accel="3" decel="5" sigma="0.5" tau="1.0"/>
    <vehicle id="OD41_RV.0" type="RV" depart="2.01" departSpeed="10">
        <route edges="-9 5 12"/>
    </vehicle>
    <vehicle id="OD23_RV.0" type="RV" depart="5.30" departSpeed="10">
        <route edges="-6 -5 -4"/>
    </vehicle>
    <vehicle id="OD30_RV.0" type="RV" depart="5.62" departSpeed="10">
        <route edges="7 8 -4"/>
    </vehicle>
    <vehicle id="OD20_NV.0" type="NV" depart="6.55" departSpeed="10">
        <route edges="4 5 12"/>
    </vehicle>
    <vehicle id="OD1_NV.0" type="NV" depart="7.64" departSpeed="10">
        <route edges="1 8 -4"/>
    </vehicle>
    <vehicle id="OD18_NV.0" type="NV" depart="9.07" departSpeed="10">
        <route edges="4 9"/>
    </vehicle>
    <vehicle id="OD9_NV.0" type="NV" depart="10.77" departSpeed="10">
        <route edges="-3 11 6"/>
    </vehicle>
    <vehicle id="OD51_RV.0" type="RV" depart="12.41" departSpeed="10">
        <route edges="-12 -5 -4"/>
    </vehicle>
    <vehicle id="OD32_NV.0" type="NV" depart="14.95" departSpeed="10">
        <route edges="7 8 9"/>
    </vehicle>
    <vehicle id="OD11_NV.0" type="NV" depart="15.37" departSpeed="10">
        <route edges="-3 11 -5 9"/>
    </vehicle>
    <vehicle id="OD0_RV.0" type="RV" depart="15.64" departSpeed="10">
        <route edges="1 2 3"/>
    </vehicle>
    <vehicle id="OD38_NV.0" type="NV" depart="16.30" departSpeed="10">
        <route edges="-9 5 6"/>
    </vehicle>
    <vehicle id="OD36_NV.0" type="NV" depart="19.62" departSpeed="10">
        <route edges="-9 5 -11 3"/>
    </vehicle>
    <vehicle id="OD26_NV.0" type="NV" depart="19.81" departSpeed="10">
        <route edges="-6 -11 -10"/>
    </vehicle>
    <vehicle id="OD42_NV.0" type="NV" depart="19.86" departSpeed="10">
        <route edges="10 -2 -1"/>
    </vehicle>
    <vehicle id="OD15_NV.0" type="NV" depart="20.15" departSpeed="10">
        <route edges="4 5 -11 3"/>
    </vehicle>
    <vehicle id="OD15_RV.0" type="RV" depart="20.72" departSpeed="10">
        <route edges="4 -8 2 3"/>
    </vehicle>
    <vehicle id="OD7_NV.0" type="NV" depart="21.57" departSpeed="10">
        <route edges="-3 -2 -1"/>
    </vehicle>
    <vehicle id="OD16_NV.0" type="NV" depart="21.61" departSpeed="10">
        <route edges="4 5 6"/>
    </vehicle>
    <vehicle id="OD15_NV.1" type="NV" depart="23.45" departSpeed="10">
        <route edges="4 -8 2 3"/>
    </vehicle>
    <vehicle id="OD55_NV.0" type="NV" depart="24.00" departSpeed="10">
        <route edges="-12 -11 -10"/>
    </vehicle>
    <vehicle id="OD45_NV.0" type="NV" depart="24.65" departSpeed="10">
        <route edges="10 11 6"/>
    </vehicle>
    <vehicle id="OD51_NV.0" type="NV" depart="26.43" departSpeed="10">
        <route edges="-12 -5 -4"/>
    </vehicle>
    <vehicle id="OD34_NV.0" type="NV" depart="26.53" departSpeed="10">
        <route edges="7 8 5 12"/>
    </vehicle>
    <vehicle id="OD41_NV.0" type="NV" depart="27.87" departSpeed="10">
        <route edges="-9 5 12"/>
    </vehicle>
    <vehicle id="OD32_NV.1" type="NV" depart="28.97" departSpeed="10">
        <route edges="7 8 9"/>
    </vehicle>
    <vehicle id="OD49_NV.0" type="NV" depart="29.09" departSpeed="10">
        <route edges="-12 -11 -2 -1"/>
    </vehicle>
    <vehicle id="OD55_NV.1" type="NV" depart="29.81" departSpeed="10">
        <route edges="-12 -11 -10"/>
    </vehicle>
    <vehicle id="OD21_NV.0" type="NV" depart="29.93" departSpeed="10">
        <route edges="-6 -11 -2 -1"/>
    </vehicle>
    <vehicle id="OD37_NV.0" type="NV" depart="32.29" departSpeed="10">
        <route edges="-9 -4"/>
    </vehicle>
    <vehicle id="OD48_NV.0" type="NV" depart="32.37" departSpeed="10">
        <route edges="10 11 12"/>
    </vehicle>
    <vehicle id="OD43_RV.0" type="RV" depart="33.30" departSpeed="10">
        <route edges="10 3"/>
    </vehicle>
    <vehicle id="OD48_NV.1" type="NV" depart="33.87" departSpeed="10">
        <route edges="10 11 12"/>
    </vehicle>
    <vehicle id="OD39_NV.0" type="NV" depart="33.95" departSpeed="10">
        <route edges="-9 -8 -7"/>
    </vehicle>
    <vehicle id="OD11_NV.1" type="NV" depart="35.36" departSpeed="10">
        <route edges="-3 11 -5 9"/>
    </vehicle>
    <vehicle id="OD53_NV.0" type="NV" depart="36.13" departSpeed="10">
        <route edges="-12 -5 -8 -7"/>
    </vehicle>
    <vehicle id="OD0_NV.0" type="NV" depart="36.49" departSpeed="10">
        <route edges="1 2 3"/>
    </vehicle>
    <vehicle id="OD23_NV.0" type="NV" depart="37.11" departSpeed="10">
        <route edges="-6 -5 -4"/>
    </vehicle>
    <vehicle id="OD10_NV.1" type="NV" depart="39.32" departSpeed="10">
        <route edges="-3 -2 -7"/>
    </vehicle>
    <vehicle id="OD48_RV.0" type="RV" depart="39.45" departSpeed="10">
        <route edges="10 11 12"/>
    </vehicle>
    <vehicle id="OD17_NV.0" type="NV" depart="42.09" departSpeed="10">
        <route edges="4 -8 -7"/>
    </vehicle>
    <vehicle id="OD15_NV.2" type="NV" depart="42.79" departSpeed="10">
        <route edges="4 5 -11 3"/>
    </vehicle>
    <vehicle id="OD9_RV.0" type="RV" depart="42.94" departSpeed="10">
        <route edges="-3 11 6"/>
    </vehicle>
    <vehicle id="OD28_NV.0" type="NV" depart="43.43" departSpeed="10">
        <route edges="7 -1"/>
    </vehicle>
    <vehicle id="OD33_NV.0" type="NV" depart="46.24" departSpeed="10">
        <route edges="7 2 -10"/>
    </vehicle>
    <vehicle id="OD34_NV.1" type="NV" depart="46.95" departSpeed="10">
        <route edges="7 8 5 12"/>
    </vehicle>
    <vehicle id="OD26_NV.1" type="NV" depart="48.07" departSpeed="10">
        <route edges="-6 -11 -10"/>
    </vehicle>
    <vehicle id="OD38_NV.1" type="NV" depart="50.66" departSpeed="10">
        <route edges="-9 5 6"/>
    </vehicle>
    <vehicle id="OD13_NV.0" type="NV" depart="52.06" departSpeed="10">
        <route edges="-3 11 12"/>
    </vehicle>
    <vehicle id="OD34_NV.2" type="NV" depart="53.12" departSpeed="10">
        <route edges="7 2 11 12"/>
    </vehicle>
    <vehicle id="OD18_NV.1" type="NV" depart="53.62" departSpeed="10">
        <route edges="4 9"/>
    </vehicle>
    <vehicle id="OD33_NV.1" type="NV" depart="54.19" departSpeed="10">
        <route edges="7 2 -10"/>
    </vehicle>
    <vehicle id="OD1_NV.1" type="NV" depart="55.46" departSpeed="10">
        <route edges="1 8 -4"/>
    </vehicle>
    <vehicle id="OD18_NV.2" type="NV" depart="55.58" departSpeed="10">
        <route edges="4 9"/>
    </vehicle>
    <vehicle id="OD22_RV.0" type="RV" depart="55.68" departSpeed="10">
        <route edges="-6 -11 3"/>
    </vehicle>
    <vehicle id="OD33_NV.2" type="NV" depart="56.07" departSpeed="10">
        <route edges="7 2 -10"/>
    </vehicle>
    <vehicle id="OD6_NV.0" type="NV" depart="58.03" departSpeed="10">
        <route edges="1 8 5 12"/>
    </vehicle>
    <vehicle id="OD27_NV.0" type="NV" depart="58.99" departSpeed="10">
        <route edges="-6 12"/>
    </vehicle>
    <vehicle id="OD18_NV.3" type="NV" depart="59.03" departSpeed="10">
        <route edges="4 9"/>
    </vehicle>
    <vehicle id="OD26_NV.2" type="NV" depart="59.41" departSpeed="10">
        <route edges="-6 -11 -10"/>
    </vehicle>
    <vehicle id="OD38_NV.2" type="NV" depart="63.21" departSpeed="10">
        <route edges="-9 5 6"/>
    </vehicle>
    <vehicle id="OD34_RV.0" type="RV" depart="63.79" departSpeed="10">
        <route edges="7 2 11 12"/>
    </vehicle>
    <vehicle id="OD20_NV.1" type="NV" depart="64.00" departSpeed="10">
        <route edges="4 5 12"/>
    </vehicle>
    <vehicle id="OD23_NV.1" type="NV" depart="64.34" departSpeed="10">
        <route edges="-6 -5 -4"/>
    </vehicle>
    <vehicle id="OD39_RV.0" type="RV" depart="64.59" departSpeed="10">
        <route edges="-9 -8 -7"/>
    </vehicle>
    <vehicle id="OD51_NV.1" type="NV" depart="64.81" departSpeed="10">
        <route edges="-12 -5 -4"/>
    </vehicle>
    <vehicle id="OD31_RV.0" type="RV" depart="66.67" departSpeed="10">
        <route edges="7 2 11 6"/>
    </vehicle>
    <vehicle id="OD13_NV.1" type="NV" depart="67.09" departSpeed="10">
        <route edges="-3 11 12"/>
    </vehicle>
    <vehicle id="OD16_NV.1" type="NV" depart="67.14" departSpeed="10">
        <route edges="4 5 6"/>
    </vehicle>
    <vehicle id="OD20_RV.0" type="RV" depart="69.86" departSpeed="10">
        <route edges="4 5 12"/>
    </vehicle>
    <vehicle id="OD7_NV.1" type="NV" depart="70.16" departSpeed="10">
        <route edges="-3 -2 -1"/>
    </vehicle>
    <vehicle id="OD26_NV.3" type="NV" depart="70.26" departSpeed="10">
        <route edges="-6 -11 -10"/>
    </vehicle>
    <vehicle id="OD11_RV.0" type="RV" depart="72.61" departSpeed="10">
        <route edges="-3 -2 8 9"/>
    </vehicle>
    <vehicle id="OD0_NV.1" type="NV" depart="73.65" departSpeed="10">
        <route edges="1 2 3"/>
    </vehicle>
    <vehicle id="OD19_NV.0" type="NV" depart="75.59" departSpeed="10">
        <route edges="4 5 -11 -10"/>
    </vehicle>
    <vehicle id="OD39_NV.1" type="NV" depart="76.16" departSpeed="10">
        <route edges="-9 -8 -7"/>
    </vehicle>
    <vehicle id="OD15_NV.3" type="NV" depart="76.33" departSpeed="10">
        <route edges="4 -8 2 3"/>
    </vehicle>
    <vehicle id="OD3_RV.0" type="RV" depart="76.90" departSpeed="10">
        <route edges="1 -7"/>
    </vehicle>
    <vehicle id="OD25_NV.0" type="NV" depart="77.64" departSpeed="10">
        <route edges="-6 -5 9"/>
    </vehicle>
    <vehicle id="OD16_NV.2" type="NV" depart="81.30" departSpeed="10">
        <route edges="4 5 6"/>
    </vehicle>
    <vehicle id="OD25_NV.1" type="NV" depart="81.75" departSpeed="10">
        <route edges="-6 -5 9"/>
    </vehicle>
    <vehicle id="OD42_NV.1" type="NV" depart="82.23" departSpeed="10">
        <route edges="10 -2 -1"/>
    </vehicle>
    <vehicle id="OD12_RV.0" type="RV" depart="82.60" departSpeed="10">
        <route edges="-3 -10"/>
    </vehicle>
    <vehicle id="OD8_NV.0" type="NV" depart="82.61" departSpeed="10">
        <route edges="-3 -2 8 -4"/>
    </vehicle>
    <vehicle id="OD17_NV.1" type="NV" depart="83.56" departSpeed="10">
        <route edges="4 -8 -7"/>
    </vehicle>
    <vehicle id="OD55_NV.2" type="NV" depart="85.71" departSpeed="10">
        <route edges="-12 -11 -10"/>
    </vehicle>
    <vehicle id="OD14_NV.0" type="NV" depart="85.71" departSpeed="10">
        <route edges="4 -8 -1"/>
    </vehicle>
    <vehicle id="OD17_NV.2" type="NV" depart="86.07" departSpeed="10">
        <route edges="4 -8 -7"/>
    </vehicle>
    <vehicle id="OD41_RV.1" type="RV" depart="86.61" departSpeed="10">
        <route edges="-9 5 12"/>
    </vehicle>
    <vehicle id="OD12_NV.0" type="NV" depart="87.57" departSpeed="10">
        <route edges="-3 -10"/>
    </vehicle>
    <vehicle id="OD1_NV.2" type="NV" depart="87.66" departSpeed="10">
        <route edges="1 8 -4"/>
    </vehicle>
    <vehicle id="OD30_NV.0" type="NV" depart="87.97" departSpeed="10">
        <route edges="7 8 -4"/>
    </vehicle>
    <vehicle id="OD42_RV.0" type="RV" depart="88.00" departSpeed="10">
        <route edges="10 -2 -1"/>
    </vehicle>
    <vehicle id="OD55_NV.3" type="NV" depart="88.17" departSpeed="10">
        <route edges="-12 -11 -10"/>
    </vehicle>
    <vehicle id="OD7_NV.2" type="NV" depart="89.15" departSpeed="10">
        <route edges="-3 -2 -1"/>
    </vehicle>
    <vehicle id="OD7_NV.3" type="NV" depart="89.90" departSpeed="10">
        <route edges="-3 -2 -1"/>
    </vehicle>
    <vehicle id="OD38_NV.3" type="NV" depart="90.67" departSpeed="10">
        <route edges="-9 5 6"/>
    </vehicle>
    <vehicle id="OD39_NV.2" type="NV" depart="91.42" departSpeed="10">
        <route edges="-9 -8 -7"/>
    </vehicle>
    <vehicle id="OD8_NV.1" type="NV" depart="92.61" departSpeed="10">
        <route edges="-3 -2 8 -4"/>
    </vehicle>
    <vehicle id="OD16_NV.3" type="NV" depart="94.38" departSpeed="10">
        <route edges="4 5 6"/>
    </vehicle>
    <vehicle id="OD29_NV.0" type="NV" depart="95.96" departSpeed="10">
        <route edges="7 2 3"/>
    </vehicle>
    <vehicle id="OD42_NV.2" type="NV" depart="96.64" departSpeed="10">
        <route edges="10 -2 -1"/>
    </vehicle>
    <vehicle id="OD21_RV.0" type="RV" depart="98.50" departSpeed="10">
        <route edges="-6 -11 -2 -1"/>
    </vehicle>
    <vehicle id="OD47_NV.0" type="NV" depart="99.49" departSpeed="10">
        <route edges="10 -2 8 9"/>
    </vehicle>
    <vehicle id="OD33_NV.3" type="NV" depart="100.43" departSpeed="10">
        <route edges="7 2 -10"/>
    </vehicle>
    <vehicle id="OD45_NV.1" type="NV" depart="101.19" departSpeed="10">
        <route edges="10 11 6"/>
    </vehicle>
    <vehicle id="OD39_RV.1" type="RV" depart="103.09" departSpeed="10">
        <route edges="-9 -8 -7"/>
    </vehicle>
    <vehicle id="OD8_NV.2" type="NV" depart="103.73" departSpeed="10">
        <route edges="-3 11 -5 -4"/>
    </vehicle>
    <vehicle id="OD51_NV.2" type="NV" depart="105.36" departSpeed="10">
        <route edges="-12 -5 -4"/>
    </vehicle>
    <vehicle id="OD12_RV.1" type="RV" depart="108.79" departSpeed="10">
        <route edges="-3 -10"/>
    </vehicle>
    <vehicle id="OD13_RV.0" type="RV" depart="109.52" departSpeed="10">
        <route edges="-3 11 12"/>
    </vehicle>
    <vehicle id="OD41_NV.1" type="NV" depart="110.77" departSpeed="10">
        <route edges="-9 5 12"/>
    </vehicle>
    <vehicle id="OD14_NV.1" type="NV" depart="113.17" departSpeed="10">
        <route edges="4 -8 -1"/>
    </vehicle>
    <vehicle id="OD9_NV.1" type="NV" depart="113.52" departSpeed="10">
        <route edges="-3 11 6"/>
    </vehicle>
    <vehicle id="OD38_NV.4" type="NV" depart="113.74" departSpeed="10">
        <route edges="-9 5 6"/>
    </vehicle>
    <vehicle id="OD43_NV.0" type="NV" depart="114.32" departSpeed="10">
        <route edges="10 3"/>
    </vehicle>
    <vehicle id="OD41_RV.2" type="RV" depart="115.54" departSpeed="10">
        <route edges="-9 5 12"/>
    </vehicle>
    <vehicle id="OD6_RV.0" type="RV" depart="115.94" departSpeed="10">
        <route edges="1 2 11 12"/>
    </vehicle>
    <vehicle id="OD52_RV.0" type="RV" depart="118.86" departSpeed="10">
        <route edges="-12 6"/>
    </vehicle>
    <vehicle id="OD50_NV.0" type="NV" depart="119.27" departSpeed="10">
        <route edges="-12 -11 3"/>
    </vehicle>
    <vehicle id="OD12_NV.1" type="NV" depart="119.29" departSpeed="10">
        <route edges="-3 -10"/>
    </vehicle>
    <vehicle id="OD2_NV.0" type="NV" depart="119.51" departSpeed="10">
        <route edges="1 8 5 6"/>
    </vehicle>
    <vehicle id="OD46_RV.0" type="RV" depart="121.05" departSpeed="10">
        <route edges="10 -2 -7"/>
    </vehicle>
    <vehicle id="OD14_RV.0" type="RV" depart="121.70" departSpeed="10">
        <route edges="4 -8 -1"/>
    </vehicle>
    <vehicle id="OD27_NV.1" type="NV" depart="121.86" departSpeed="10">
        <route edges="-6 12"/>
    </vehicle>
    <vehicle id="OD11_NV.2" type="NV" depart="122.68" departSpeed="10">
        <route edges="-3 11 -5 9"/>
    </vehicle>
    <vehicle id="OD50_NV.1" type="NV" depart="122.88" departSpeed="10">
        <route edges="-12 -11 3"/>
    </vehicle>
    <vehicle id="OD41_NV.2" type="NV" depart="123.04" departSpeed="10">
        <route edges="-9 5 12"/>
    </vehicle>
    <vehicle id="OD35_NV.0" type="NV" depart="124.01" departSpeed="10">
        <route edges="-9 -8 -1"/>
    </vehicle>
    <vehicle id="OD14_RV.1" type="RV" depart="126.51" departSpeed="10">
        <route edges="4 -8 -1"/>
    </vehicle>
    <vehicle id="OD36_NV.1" type="NV" depart="127.23" departSpeed="10">
        <route edges="-9 -8 2 3"/>
    </vehicle>
    <vehicle id="OD53_NV.1" type="NV" depart="129.12" departSpeed="10">
        <route edges="-12 -5 -8 -7"/>
    </vehicle>
    <vehicle id="OD44_NV.0" type="NV" depart="129.70" departSpeed="10">
        <route edges="10 11 -5 -4"/>
    </vehicle>
    <vehicle id="OD48_NV.2" type="NV" depart="130.31" departSpeed="10">
        <route edges="10 11 12"/>
    </vehicle>
    <vehicle id="OD10_RV.0" type="RV" depart="131.30" departSpeed="10">
        <route edges="-3 -2 -7"/>
    </vehicle>
    <vehicle id="OD2_NV.1" type="NV" depart="132.73" departSpeed="10">
        <route edges="1 8 5 6"/>
    </vehicle>
    <vehicle id="OD35_NV.1" type="NV" depart="132.91" departSpeed="10">
        <route edges="-9 -8 -1"/>
    </vehicle>
    <vehicle id="OD48_NV.3" type="NV" depart="133.02" departSpeed="10">
        <route edges="10 11 12"/>
    </vehicle>
    <vehicle id="OD1_NV.3" type="NV" depart="135.31" departSpeed="10">
        <route edges="1 8 -4"/>
    </vehicle>
    <vehicle id="OD50_NV.2" type="NV" depart="135.51" departSpeed="10">
        <route edges="-12 -11 3"/>
    </vehicle>
    <vehicle id="OD6_NV.1" type="NV" depart="135.97" departSpeed="10">
        <route edges="1 2 11 12"/>
    </vehicle>
    <vehicle id="OD47_NV.1" type="NV" depart="136.93" departSpeed="10">
        <route edges="10 -2 8 9"/>
    </vehicle>
    <vehicle id="OD46_RV.1" type="RV" depart="137.48" departSpeed="10">
        <route edges="10 -2 -7"/>
    </vehicle>
    <vehicle id="OD15_NV.4" type="NV" depart="137.72" departSpeed="10">
        <route edges="4 5 -11 3"/>
    </vehicle>
    <vehicle id="OD29_NV.1" type="NV" depart="139.39" departSpeed="10">
        <route edges="7 2 3"/>
    </vehicle>
    <vehicle id="OD10_NV.2" type="NV" depart="139.70" departSpeed="10">
        <route edges="-3 -2 -7"/>
    </vehicle>
    <vehicle id="OD30_NV.1" type="NV" depart="140.75" departSpeed="10">
        <route edges="7 8 -4"/>
    </vehicle>
    <vehicle id="OD37_NV.1" type="NV" depart="141.70" departSpeed="10">
        <route edges="-9 -4"/>
    </vehicle>
    <vehicle id="OD31_RV.1" type="RV" depart="141.98" departSpeed="10">
        <route edges="7 8 5 6"/>
    </vehicle>
    <vehicle id="OD43_NV.1" type="NV" depart="142.61" departSpeed="10">
        <route edges="10 3"/>
    </vehicle>
    <vehicle id="OD32_NV.2" type="NV" depart="143.47" departSpeed="10">
        <route edges="7 8 9"/>
    </vehicle>
    <vehicle id="OD0_RV.1" type="RV" depart="144.80" departSpeed="10">
        <route edges="1 2 3"/>
    </vehicle>
    <vehicle id="OD23_NV.2" type="NV" depart="145.45" departSpeed="10">
        <route edges="-6 -5 -4"/>
    </vehicle>
    <vehicle id="OD49_NV.1" type="NV" depart="146.24" departSpeed="10">
        <route edges="-12 -11 -2 -1"/>
    </vehicle>
    <vehicle id="OD46_NV.0" type="NV" depart="146.60" departSpeed="10">
        <route edges="10 -2 -7"/>
    </vehicle>
    <vehicle id="OD1_NV.4" type="NV" depart="148.10" departSpeed="10">
        <route edges="1 8 -4"/>
    </vehicle>
    <vehicle id="OD44_NV.1" type="NV" depart="148.15" departSpeed="10">
        <route edges="10 11 -5 -4"/>
    </vehicle>
    <vehicle id="OD12_NV.2" type="NV" depart="150.05" departSpeed="10">
        <route edges="-3 -10"/>
    </vehicle>
    <vehicle id="OD32_NV.3" type="NV" depart="150.21" departSpeed="10">
        <route edges="7 8 9"/>
    </vehicle>
    <vehicle id="OD51_NV.3" type="NV" depart="150.42" departSpeed="10">
        <route edges="-12 -5 -4"/>
    </vehicle>
    <vehicle id="OD27_NV.2" type="NV" depart="151.06" departSpeed="10">
        <route edges="-6 12"/>
    </vehicle>
    <vehicle id="OD10_NV.3" type="NV" depart="151.24" departSpeed="10">
        <route edges="-3 -2 -7"/>
    </vehicle>
    <vehicle id="OD32_NV.4" type="NV" depart="152.51" departSpeed="10">
        <route edges="7 8 9"/>
    </vehicle>
    <vehicle id="OD18_NV.4" type="NV" depart="158.61" departSpeed="10">
        <route edges="4 9"/>
    </vehicle>
    <vehicle id="OD53_NV.2" type="NV" depart="158.77" departSpeed="10">
        <route edges="-12 -11 -2 -7"/>
    </vehicle>
    <vehicle id="OD50_NV.3" type="NV" depart="158.90" departSpeed="10">
        <route edges="-12 -11 3"/>
    </vehicle>
    <vehicle id="OD11_RV.1" type="RV" depart="159.79" departSpeed="10">
        <route edges="-3 11 -5 9"/>
    </vehicle>
    <vehicle id="OD26_NV.4" type="NV" depart="160.06" departSpeed="10">
        <route edges="-6 -11 -10"/>
    </vehicle>
    <vehicle id="OD34_NV.3" type="NV" depart="161.05" departSpeed="10">
        <route edges="7 2 11 12"/>
    </vehicle>
    <vehicle id="OD32_RV.0" type="RV" depart="161.49" departSpeed="10">
        <route edges="7 8 9"/>
    </vehicle>
    <vehicle id="OD25_NV.2" type="NV" depart="161.95" departSpeed="10">
        <route edges="-6 -5 9"/>
    </vehicle>
    <vehicle id="OD44_NV.2" type="NV" depart="162.34" departSpeed="10">
        <route edges="10 -2 8 -4"/>
    </vehicle>
    <vehicle id="OD42_NV.3" type="NV" depart="162.62" departSpeed="10">
        <route edges="10 -2 -1"/>
    </vehicle>
    <vehicle id="OD34_RV.1" type="RV" depart="162.75" departSpeed="10">
        <route edges="7 8 5 12"/>
    </vehicle>
    <vehicle id="OD18_RV.0" type="RV" depart="163.67" departSpeed="10">
        <route edges="4 9"/>
    </vehicle>
    <vehicle id="OD21_NV.1" type="NV" depart="165.62" departSpeed="10">
        <route edges="-6 -11 -2 -1"/>
    </vehicle>
    <vehicle id="OD43_NV.2" type="NV" depart="166.48" departSpeed="10">
        <route edges="10 3"/>
    </vehicle>
    <vehicle id="OD47_NV.2" type="NV" depart="166.58" departSpeed="10">
        <route edges="10 11 -5 9"/>
    </vehicle>
    <vehicle id="OD30_NV.2" type="NV" depart="166.93" departSpeed="10">
        <route edges="7 8 -4"/>
    </vehicle>
    <vehicle id="OD28_NV.1" type="NV" depart="171.10" departSpeed="10">
        <route edges="7 -1"/>
    </vehicle>
    <vehicle id="OD4_RV.0" type="RV" depart="171.32" departSpeed="10">
        <route edges="1 8 9"/>
    </vehicle>
    <vehicle id="OD5_RV.0" type="RV" depart="172.48" departSpeed="10">
        <route edges="1 2 -10"/>
    </vehicle>
    <vehicle id="OD31_NV.0" type="NV" depart="173.04" departSpeed="10">
        <route edges="7 2 11 6"/>
    </vehicle>
    <vehicle id="OD14_NV.2" type="NV" depart="173.35" departSpeed="10">
        <route edges="4 -8 -1"/>
    </vehicle>
    <vehicle id="OD6_NV.2" type="NV" depart="173.44" departSpeed="10">
        <route edges="1 2 11 12"/>
    </vehicle>
    <vehicle id="OD35_NV.2" type="NV" depart="174.03" departSpeed="10">
        <route edges="-9 -8 -1"/>
    </vehicle>
    <vehicle id="OD37_NV.2" type="NV" depart="174.36" departSpeed="10">
        <route edges="-9 -4"/>
    </vehicle>
    <vehicle id="OD6_NV.3" type="NV" depart="174.48" departSpeed="10">
        <route edges="1 2 11 12"/>
    </vehicle>
    <vehicle id="OD16_NV.4" type="NV" depart="174.84" departSpeed="10">
        <route edges="4 5 6"/>
    </vehicle>
    <vehicle id="OD6_NV.4" type="NV" depart="175.02" departSpeed="10">
        <route edges="1 8 5 12"/>
    </vehicle>
    <vehicle id="OD51_NV.4" type="NV" depart="175.48" departSpeed="10">
        <route edges="-12 -5 -4"/>
    </vehicle>
    <vehicle id="OD49_NV.2" type="NV" depart="175.60" departSpeed="10">
        <route edges="-12 -5 -8 -1"/>
    </vehicle>
    <vehicle id="OD22_NV.0" type="NV" depart="175.99" departSpeed="10">
        <route edges="-6 -11 3"/>
    </vehicle>
    <vehicle id="OD18_NV.5" type="NV" depart="176.17" departSpeed="10">
        <route edges="4 9"/>
    </vehicle>
    <vehicle id="OD50_NV.4" type="NV" depart="176.31" departSpeed="10">
        <route edges="-12 -11 3"/>
    </vehicle>
    <vehicle id="OD45_NV.2" type="NV" depart="176.36" departSpeed="10">
        <route edges="10 11 6"/>
    </vehicle>
    <vehicle id="OD27_NV.3" type="NV" depart="178.15" departSpeed="10">
        <route edges="-6 12"/>
    </vehicle>
    <vehicle id="OD22_RV.1" type="RV" depart="179.73" departSpeed="10">
        <route edges="-6 -11 3"/>
    </vehicle>
    <vehicle id="OD41_NV.3" type="NV" depart="180.55" departSpeed="10">
        <route edges="-9 5 12"/>
    </vehicle>
    <vehicle id="OD43_NV.3" type="NV" depart="183.37" departSpeed="10">
        <route edges="10 3"/>
    </vehicle>
    <vehicle id="OD29_NV.2" type="NV" depart="183.72" departSpeed="10">
        <route edges="7 2 3"/>
    </vehicle>
    <vehicle id="OD1_RV.0" type="RV" depart="184.39" departSpeed="10">
        <route edges="1 8 -4"/>
    </vehicle>
    <vehicle id="OD44_NV.3" type="NV" depart="184.56" departSpeed="10">
        <route edges="10 -2 8 -4"/>
    </vehicle>
    <vehicle id="OD22_NV.1" type="NV" depart="186.39" departSpeed="10">
        <route edges="-6 -11 3"/>
    </vehicle>
    <vehicle id="OD3_NV.0" type="NV" depart="189.02" departSpeed="10">
        <route edges="1 -7"/>
    </vehicle>
    <vehicle id="OD41_NV.4" type="NV" depart="190.36" departSpeed="10">
        <route edges="-9 5 12"/>
    </vehicle>
    <vehicle id="OD41_NV.5" type="NV" depart="193.08" departSpeed="10">
        <route edges="-9 5 12"/>
    </vehicle>
    <vehicle id="OD47_NV.3" type="NV" depart="195.76" departSpeed="10">
        <route edges="10 -2 8 9"/>
    </vehicle>
    <vehicle id="OD22_NV.2" type="NV" depart="196.21" departSpeed="10">
        <route edges="-6 -11 3"/>
    </vehicle>
    <vehicle id="OD16_RV.0" type="RV" depart="197.51" departSpeed="10">
        <route edges="4 5 6"/>
    </vehicle>
    <vehicle id="OD4_NV.0" type="NV" depart="198.26" departSpeed="10">
        <route edges="1 8 9"/>
    </vehicle>
    <vehicle id="OD2_NV.2" type="NV" depart="198.47" departSpeed="10">
        <route edges="1 2 11 6"/>
    </vehicle>
    <vehicle id="OD43_NV.4" type="NV" depart="198.80" departSpeed="10">
        <route edges="10 3"/>
    </vehicle>
    <vehicle id="OD14_NV.3" type="NV" depart="199.87" departSpeed="10">
        <route edges="4 -8 -1"/>
    </vehicle>
    <vehicle id="OD27_RV.0" type="RV" depart="200.55" departSpeed="10">
        <route edges="-6 12"/>
    </vehicle>
    <vehicle id="OD30_NV.3" type="NV" depart="200.66" departSpeed="10">
        <route edges="7 8 -4"/>
    </vehicle>
    <vehicle id="OD53_NV.3" type="NV" depart="201.74" departSpeed="10">
        <route edges="-12 -5 -8 -7"/>
    </vehicle>
    <vehicle id="OD24_NV.0" type="NV" depart="202.05" departSpeed="10">
        <route edges="-6 -5 -8 -7"/>
    </vehicle>
    <vehicle id="OD31_NV.1" type="NV" depart="202.08" departSpeed="10">
        <route edges="7 8 5 6"/>
    </vehicle>
    <vehicle id="OD23_NV.3" type="NV" depart="202.41" departSpeed="10">
        <route edges="-6 -5 -4"/>
    </vehicle>
    <vehicle id="OD30_NV.4" type="NV" depart="202.64" departSpeed="10">
        <route edges="7 8 -4"/>
    </vehicle>
    <vehicle id="OD26_RV.0" type="RV" depart="204.68" departSpeed="10">
        <route edges="-6 -11 -10"/>
    </vehicle>
    <vehicle id="OD31_NV.2" type="NV" depart="205.42" departSpeed="10">
        <route edges="7 8 5 6"/>
    </vehicle>
    <vehicle id="OD50_NV.5" type="NV" depart="205.88" departSpeed="10">
        <route edges="-12 -11 3"/>
    </vehicle>
    <vehicle id="OD6_NV.5" type="NV" depart="206.33" departSpeed="10">
        <route edges="1 2 11 12"/>
    </vehicle>
    <vehicle id="OD40_NV.0" type="NV" depart="206.38" departSpeed="10">
        <route edges="-9 -8 2 -10"/>
    </vehicle>
    <vehicle id="OD3_RV.1" type="RV" depart="206.53" departSpeed="10">
        <route edges="1 -7"/>
    </vehicle>
    <vehicle id="OD9_NV.2" type="NV" depart="207.17" departSpeed="10">
        <route edges="-3 11 6"/>
    </vehicle>
    <vehicle id="OD47_RV.0" type="RV" depart="208.63" departSpeed="10">
        <route edges="10 11 -5 9"/>
    </vehicle>
    <vehicle id="OD47_NV.4" type="NV" depart="208.84" departSpeed="10">
        <route edges="10 -2 8 9"/>
    </vehicle>
    <vehicle id="OD29_NV.3" type="NV" depart="208.87" departSpeed="10">
        <route edges="7 2 3"/>
    </vehicle>
    <vehicle id="OD17_NV.3" type="NV" depart="209.09" departSpeed="10">
        <route edges="4 -8 -7"/>
    </vehicle>
    <vehicle id="OD35_NV.3" type="NV" depart="209.20" departSpeed="10">
        <route edges="-9 -8 -1"/>
    </vehicle>