<?xml version="1.0" encoding="UTF-8"?>

<!-- generated on 2024-09-05 20:45:13 by Eclipse SUMO netedit Version 1.18.0
<configuration xmlns:xsi="http://www.w3.org/2001/XMLSchema-instance" xsi:noNamespaceSchemaLocation="http://sumo.dlr.de/xsd/neteditConfiguration.xsd">

    <input>
        <sumo-net-file value="E:\RL_TSP\envs\5x5\5x5.net.xml"/>
    </input>

    <output>
        <output-file value="E:\RL_TSP\envs\5x5\5x5.net.xml"/>
    </output>

    <processing>
        <geometry.min-radius.fix.railways value="false"/>
        <geometry.max-grade.fix value="false"/>
        <offset.disable-normalization value="true"/>
        <lefthand value="0"/>
    </processing>

    <junctions>
        <no-turnarounds value="true"/>
        <junctions.corner-detail value="5"/>
        <junctions.limit-turn-speed value="5.50"/>
        <rectangular-lane-cut value="0"/>
    </junctions>

    <pedestrian>
        <walkingareas value="0"/>
    </pedestrian>

</configuration>
-->

<net version="1.16" junctionCornerDetail="5" limitTurnSpeed="5.50" xmlns:xsi="http://www.w3.org/2001/XMLSchema-instance" xsi:noNamespaceSchemaLocation="http://sumo.dlr.de/xsd/net_file.xsd">

    <location netOffset="0.00,0.00" convBoundary="0.00,0.00,1800.00,1800.00" origBoundary="0.00,0.00,1800.00,1800.00" projParameter="!"/>

    <edge id=":A0_0" function="internal">
        <lane id=":A0_0_0" index="0" speed="6.51" length="9.03" shape="292.00,313.60 291.65,311.15 290.60,309.40 288.85,308.35 286.40,308.00"/>
    </edge>
    <edge id=":A0_1" function="internal">
        <lane id=":A0_1_0" index="0" speed="13.89" length="27.20" shape="295.20,313.60 295.20,286.40"/>
    </edge>
    <edge id=":A0_2" function="internal">
        <lane id=":A0_2_0" index="0" speed="10.36" length="24.51" shape="298.40,313.60 299.35,306.95 302.20,302.20 306.95,299.35 313.60,298.40"/>
    </edge>
    <edge id=":A0_3" function="internal">
        <lane id=":A0_3_0" index="0" speed="6.51" length="9.03" shape="313.60,308.00 311.15,308.35 309.40,309.40 308.35,311.15 308.00,313.60"/>
    </edge>
    <edge id=":A0_4" function="internal">
        <lane id=":A0_4_0" index="0" speed="13.89" length="27.20" shape="313.60,304.80 286.40,304.80"/>
    </edge>
    <edge id=":A0_5" function="internal">
        <lane id=":A0_5_0" index="0" speed="10.36" length="24.51" shape="313.60,301.60 306.95,300.65 302.20,297.80 299.35,293.05 298.40,286.40"/>
    </edge>
    <edge id=":A0_6" function="internal">
        <lane id=":A0_6_0" index="0" speed="6.51" length="9.03" shape="308.00,286.40 308.35,288.85 309.40,290.60 311.15,291.65 313.60,292.00"/>
    </edge>
    <edge id=":A0_7" function="internal">
        <lane id=":A0_7_0" index="0" speed="13.89" length="27.20" shape="304.80,286.40 304.80,313.60"/>
    </edge>
    <edge id=":A0_8" function="internal">
        <lane id=":A0_8_0" index="0" speed="10.36" length="24.51" shape="301.60,286.40 300.65,293.05 297.80,297.80 293.05,300.65 286.40,301.60"/>
    </edge>
    <edge id=":A0_9" function="internal">
        <lane id=":A0_9_0" index="0" speed="6.51" length="9.03" shape="286.40,292.00 288.85,291.65 290.60,290.60 291.65,288.85 292.00,286.40"/>
    </edge>
    <edge id=":A0_10" function="internal">
        <lane id=":A0_10_0" index="0" speed="13.89" length="27.20" shape="286.40,295.20 313.60,295.20"/>
    </edge>
    <edge id=":A0_11" function="internal">
        <lane id=":A0_11_0" index="0" speed="10.36" length="24.51" shape="286.40,298.40 293.05,299.35 297.80,302.20 300.65,306.95 301.60,313.60"/>
    </edge>
    <edge id=":A1_0" function="internal">
        <lane id=":A1_0_0" index="0" speed="6.51" length="9.03" shape="292.00,613.60 291.65,611.15 290.60,609.40 288.85,608.35 286.40,608.00"/>
    </edge>
    <edge id=":A1_1" function="internal">
        <lane id=":A1_1_0" index="0" speed="13.89" length="27.20" shape="295.20,613.60 295.20,586.40"/>
    </edge>
    <edge id=":A1_2" function="internal">
        <lane id=":A1_2_0" index="0" speed="10.36" length="24.51" shape="298.40,613.60 299.35,606.95 302.20,602.20 306.95,599.35 313.60,598.40"/>
    </edge>
    <edge id=":A1_3" function="internal">
        <lane id=":A1_3_0" index="0" speed="6.51" length="9.03" shape="313.60,608.00 311.15,608.35 309.40,609.40 308.35,611.15 308.00,613.60"/>
    </edge>
    <edge id=":A1_4" function="internal">
        <lane id=":A1_4_0" index="0" speed="13.89" length="27.20" shape="313.60,604.80 286.40,604.80"/>
    </edge>
    <edge id=":A1_5" function="internal">
        <lane id=":A1_5_0" index="0" speed="10.36" length="24.51" shape="313.60,601.60 306.95,600.65 302.20,597.80 299.35,593.05 298.40,586.40"/>
    </edge>
    <edge id=":A1_6" function="internal">
        <lane id=":A1_6_0" index="0" speed="6.51" length="9.03" shape="308.00,586.40 308.35,588.85 309.40,590.60 311.15,591.65 313.60,592.00"/>
    </edge>
    <edge id=":A1_7" function="internal">
        <lane id=":A1_7_0" index="0" speed="13.89" length="27.20" shape="304.80,586.40 304.80,613.60"/>
    </edge>
    <edge id=":A1_8" function="internal">
        <lane id=":A1_8_0" index="0" speed="10.36" length="24.51" shape="301.60,586.40 300.65,593.05 297.80,597.80 293.05,600.65 286.40,601.60"/>
    </edge>
    <edge id=":A1_9" function="internal">
        <lane id=":A1_9_0" index="0" speed="6.51" length="9.03" shape="286.40,592.00 288.85,591.65 290.60,590.60 291.65,588.85 292.00,586.40"/>
    </edge>
    <edge id=":A1_10" function="internal">
        <lane id=":A1_10_0" index="0" speed="13.89" length="27.20" shape="286.40,595.20 313.60,595.20"/>
    </edge>
    <edge id=":A1_11" function="internal">
        <lane id=":A1_11_0" index="0" speed="10.36" length="24.51" shape="286.40,598.40 293.05,599.35 297.80,602.20 300.65,606.95 301.60,613.60"/>
    </edge>
    <edge id=":A2_0" function="internal">
        <lane id=":A2_0_0" index="0" speed="6.51" length="9.03" shape="292.00,913.60 291.65,911.15 290.60,909.40 288.85,908.35 286.40,908.00"/>
    </edge>
    <edge id=":A2_1" function="internal">
        <lane id=":A2_1_0" index="0" speed="13.89" length="27.20" shape="295.20,913.60 295.20,886.40"/>
    </edge>
    <edge id=":A2_2" function="internal">
        <lane id=":A2_2_0" index="0" speed="10.36" length="24.51" shape="298.40,913.60 299.35,906.95 302.20,902.20 306.95,899.35 313.60,898.40"/>
    </edge>
    <edge id=":A2_3" function="internal">
        <lane id=":A2_3_0" index="0" speed="6.51" length="9.03" shape="313.60,908.00 311.15,908.35 309.40,909.40 308.35,911.15 308.00,913.60"/>
    </edge>
    <edge id=":A2_4" function="internal">
        <lane id=":A2_4_0" index="0" speed="13.89" length="27.20" shape="313.60,904.80 286.40,904.80"/>
    </edge>
    <edge id=":A2_5" function="internal">
        <lane id=":A2_5_0" index="0" speed="10.36" length="24.51" shape="313.60,901.60 306.95,900.65 302.20,897.80 299.35,893.05 298.40,886.40"/>
    </edge>
    <edge id=":A2_6" function="internal">
        <lane id=":A2_6_0" index="0" speed="6.51" length="9.03" shape="308.00,886.40 308.35,888.85 309.40,890.60 311.15,891.65 313.60,892.00"/>
    </edge>
    <edge id=":A2_7" function="internal">
        <lane id=":A2_7_0" index="0" speed="13.89" length="27.20" shape="304.80,886.40 304.80,913.60"/>
    </edge>
    <edge id=":A2_8" function="internal">
        <lane id=":A2_8_0" index="0" speed="10.36" length="24.51" shape="301.60,886.40 300.65,893.05 297.80,897.80 293.05,900.65 286.40,901.60"/>
    </edge>
    <edge id=":A2_9" function="internal">
        <lane id=":A2_9_0" index="0" speed="6.51" length="9.03" shape="286.40,892.00 288.85,891.65 290.60,890.60 291.65,888.85 292.00,886.40"/>
    </edge>
    <edge id=":A2_10" function="internal">
        <lane id=":A2_10_0" index="0" speed="13.89" length="27.20" shape="286.40,895.20 313.60,895.20"/>
    </edge>
    <edge id=":A2_11" function="internal">
        <lane id=":A2_11_0" index="0" speed="10.36" length="24.51" shape="286.40,898.40 293.05,899.35 297.80,902.20 300.65,906.95 301.60,913.60"/>
    </edge>
    <edge id=":A3_0" function="internal">
        <lane id=":A3_0_0" index="0" speed="6.51" length="9.03" shape="292.00,1213.60 291.65,1211.15 290.60,1209.40 288.85,1208.35 286.40,1208.00"/>
    </edge>
    <edge id=":A3_1" function="internal">
        <lane id=":A3_1_0" index="0" speed="13.89" length="27.20" shape="295.20,1213.60 295.20,1186.40"/>
    </edge>
    <edge id=":A3_2" function="internal">
        <lane id=":A3_2_0" index="0" speed="10.36" length="24.51" shape="298.40,1213.60 299.35,1206.95 302.20,1202.20 306.95,1199.35 313.60,1198.40"/>
    </edge>
    <edge id=":A3_3" function="internal">
        <lane id=":A3_3_0" index="0" speed="6.51" length="9.03" shape="313.60,1208.00 311.15,1208.35 309.40,1209.40 308.35,1211.15 308.00,1213.60"/>
    </edge>
    <edge id=":A3_4" function="internal">
        <lane id=":A3_4_0" index="0" speed="13.89" length="27.20" shape="313.60,1204.80 286.40,1204.80"/>
    </edge>
    <edge id=":A3_5" function="internal">
        <lane id=":A3_5_0" index="0" speed="10.36" length="24.51" shape="313.60,1201.60 306.95,1200.65 302.20,1197.80 299.35,1193.05 298.40,1186.40"/>
    </edge>
    <edge id=":A3_6" function="internal">
        <lane id=":A3_6_0" index="0" speed="6.51" length="9.03" shape="308.00,1186.40 308.35,1188.85 309.40,1190.60 311.15,1191.65 313.60,1192.00"/>
    </edge>
    <edge id=":A3_7" function="internal">
        <lane id=":A3_7_0" index="0" speed="13.89" length="27.20" shape="304.80,1186.40 304.80,1213.60"/>
    </edge>
    <edge id=":A3_8" function="internal">
        <lane id=":A3_8_0" index="0" speed="10.36" length="24.51" shape="301.60,1186.40 300.65,1193.05 297.80,1197.80 293.05,1200.65 286.40,1201.60"/>
    </edge>
    <edge id=":A3_9" function="internal">
        <lane id=":A3_9_0" index="0" speed="6.51" length="9.03" shape="286.40,1192.00 288.85,1191.65 290.60,1190.60 291.65,1188.85 292.00,1186.40"/>
    </edge>
    <edge id=":A3_10" function="internal">
        <lane id=":A3_10_0" index="0" speed="13.89" length="27.20" shape="286.40,1195.20 313.60,1195.20"/>
    </edge>
    <edge id=":A3_11" function="internal">
        <lane id=":A3_11_0" index="0" speed="10.36" length="24.51" shape="286.40,1198.40 293.05,1199.35 297.80,1202.20 300.65,1206.95 301.60,1213.60"/>
    </edge>
    <edge id=":A4_0" function="internal">
        <lane id=":A4_0_0" index="0" speed="6.51" length="9.03" shape="292.00,1513.60 291.65,1511.15 290.60,1509.40 288.85,1508.35 286.40,1508.00"/>
    </edge>
    <edge id=":A4_1" function="internal">
        <lane id=":A4_1_0" index="0" speed="13.89" length="27.20" shape="295.20,1513.60 295.20,1486.40"/>
    </edge>
    <edge id=":A4_2" function="internal">
        <lane id=":A4_2_0" index="0" speed="10.36" length="12.07" shape="298.40,1513.60 299.35,1506.95 302.10,1502.36"/>
    </edge>
    <edge id=":A4_12" function="internal">
        <lane id=":A4_12_0" index="0" speed="10.36" length="12.44" shape="302.10,1502.36 302.20,1502.20 306.95,1499.35 313.60,1498.40"/>
    </edge>
    <edge id=":A4_3" function="internal">
        <lane id=":A4_3_0" index="0" speed="6.51" length="9.03" shape="313.60,1508.00 311.15,1508.35 309.40,1509.40 308.35,1511.15 308.00,1513.60"/>
    </edge>
    <edge id=":A4_4" function="internal">
        <lane id=":A4_4_0" index="0" speed="13.89" length="27.20" shape="313.60,1504.80 286.40,1504.80"/>
    </edge>
    <edge id=":A4_5" function="internal">
        <lane id=":A4_5_0" index="0" speed="10.36" length="12.07" shape="313.60,1501.60 306.95,1500.65 302.36,1497.90"/>
    </edge>
    <edge id=":A4_13" function="internal">
        <lane id=":A4_13_0" index="0" speed="10.36" length="12.44" shape="302.36,1497.90 302.20,1497.80 299.35,1493.05 298.40,1486.40"/>
    </edge>
    <edge id=":A4_6" function="internal">
        <lane id=":A4_6_0" index="0" speed="6.51" length="9.03" shape="308.00,1486.40 308.35,1488.85 309.40,1490.60 311.15,1491.65 313.60,1492.00"/>
    </edge>
    <edge id=":A4_7" function="internal">
        <lane id=":A4_7_0" index="0" speed="13.89" length="27.20" shape="304.80,1486.40 304.80,1513.60"/>
    </edge>
    <edge id=":A4_8" function="internal">
        <lane id=":A4_8_0" index="0" speed="10.36" length="12.07" shape="301.60,1486.40 300.65,1493.05 297.90,1497.64"/>
    </edge>
    <edge id=":A4_14" function="internal">
        <lane id=":A4_14_0" index="0" speed="10.36" length="12.44" shape="297.90,1497.64 297.80,1497.80 293.05,1500.65 286.40,1501.60"/>
    </edge>
    <edge id=":A4_9" function="internal">
        <lane id=":A4_9_0" index="0" speed="6.51" length="9.03" shape="286.40,1492.00 288.85,1491.65 290.60,1490.60 291.65,1488.85 292.00,1486.40"/>
    </edge>
    <edge id=":A4_10" function="internal">
        <lane id=":A4_10_0" index="0" speed="13.89" length="27.20" shape="286.40,1495.20 313.60,1495.20"/>
    </edge>
    <edge id=":A4_11" function="internal">
        <lane id=":A4_11_0" index="0" speed="10.36" length="12.07" shape="286.40,1498.40 293.05,1499.35 297.64,1502.10"/>
    </edge>
    <edge id=":A4_15" function="internal">
        <lane id=":A4_15_0" index="0" speed="10.36" length="12.44" shape="297.64,1502.10 297.80,1502.20 300.65,1506.95 301.60,1513.60"/>
    </edge>
    <edge id=":B0_0" function="internal">
        <lane id=":B0_0_0" index="0" speed="6.51" length="9.03" shape="592.00,313.60 591.65,311.15 590.60,309.40 588.85,308.35 586.40,308.00"/>
    </edge>
    <edge id=":B0_1" function="internal">
        <lane id=":B0_1_0" index="0" speed="13.89" length="27.20" shape="595.20,313.60 595.20,286.40"/>
    </edge>
    <edge id=":B0_2" function="internal">
        <lane id=":B0_2_0" index="0" speed="10.36" length="24.51" shape="598.40,313.60 599.35,306.95 602.20,302.20 606.95,299.35 613.60,298.40"/>
    </edge>
    <edge id=":B0_3" function="internal">
        <lane id=":B0_3_0" index="0" speed="6.51" length="9.03" shape="613.60,308.00 611.15,308.35 609.40,309.40 608.35,311.15 608.00,313.60"/>
    </edge>
    <edge id=":B0_4" function="internal">
        <lane id=":B0_4_0" index="0" speed="13.89" length="27.20" shape="613.60,304.80 586.40,304.80"/>
    </edge>
    <edge id=":B0_5" function="internal">
        <lane id=":B0_5_0" index="0" speed="10.36" length="24.51" shape="613.60,301.60 606.95,300.65 602.20,297.80 599.35,293.05 598.40,286.40"/>
    </edge>
    <edge id=":B0_6" function="internal">
        <lane id=":B0_6_0" index="0" speed="6.51" length="9.03" shape="608.00,286.40 608.35,288.85 609.40,290.60 611.15,291.65 613.60,292.00"/>
    </edge>
    <edge id=":B0_7" function="internal">
        <lane id=":B0_7_0" index="0" speed="13.89" length="27.20" shape="604.80,286.40 604.80,313.60"/>
    </edge>
    <edge id=":B0_8" function="internal">
        <lane id=":B0_8_0" index="0" speed="10.36" length="24.51" shape="601.60,286.40 600.65,293.05 597.80,297.80 593.05,300.65 586.40,301.60"/>
    </edge>
    <edge id=":B0_9" function="internal">
        <lane id=":B0_9_0" index="0" speed="6.51" length="9.03" shape="586.40,292.00 588.85,291.65 590.60,290.60 591.65,288.85 592.00,286.40"/>
    </edge>
    <edge id=":B0_10" function="internal">
        <lane id=":B0_10_0" index="0" speed="13.89" length="27.20" shape="586.40,295.20 613.60,295.20"/>
    </edge>
    <edge id=":B0_11" function="internal">
        <lane id=":B0_11_0" index="0" speed="10.36" length="24.51" shape="586.40,298.40 593.05,299.35 597.80,302.20 600.65,306.95 601.60,313.60"/>
    </edge>
    <edge id=":B1_0" function="internal">
        <lane id=":B1_0_0" index="0" speed="6.51" length="9.03" shape="592.00,613.60 591.65,611.15 590.60,609.40 588.85,608.35 586.40,608.00"/>
    </edge>
    <edge id=":B1_1" function="internal">
        <lane id=":B1_1_0" index="0" speed="13.89" length="27.20" shape="595.20,613.60 595.20,586.40"/>
    </edge>
    <edge id=":B1_2" function="internal">
        <lane id=":B1_2_0" index="0" speed="10.36" length="24.51" shape="598.40,613.60 599.35,606.95 602.20,602.20 606.95,599.35 613.60,598.40"/>
    </edge>
    <edge id=":B1_3" function="internal">
        <lane id=":B1_3_0" index="0" speed="6.51" length="9.03" shape="613.60,608.00 611.15,608.35 609.40,609.40 608.35,611.15 608.00,613.60"/>
    </edge>
    <edge id=":B1_4" function="internal">
        <lane id=":B1_4_0" index="0" speed="13.89" length="27.20" shape="613.60,604.80 586.40,604.80"/>
    </edge>
    <edge id=":B1_5" function="internal">
        <lane id=":B1_5_0" index="0" speed="10.36" length="24.51" shape="613.60,601.60 606.95,600.65 602.20,597.80 599.35,593.05 598.40,586.40"/>
    </edge>
    <edge id=":B1_6" function="internal">
        <lane id=":B1_6_0" index="0" speed="6.51" length="9.03" shape="608.00,586.40 608.35,588.85 609.40,590.60 611.15,591.65 613.60,592.00"/>
    </edge>
    <edge id=":B1_7" function="internal">
        <lane id=":B1_7_0" index="0" speed="13.89" length="27.20" shape="604.80,586.40 604.80,613.60"/>
    </edge>
    <edge id=":B1_8" function="internal">
        <lane id=":B1_8_0" index="0" speed="10.36" length="24.51" shape="601.60,586.40 600.65,593.05 597.80,597.80 593.05,600.65 586.40,601.60"/>
    </edge>
    <edge id=":B1_9" function="internal">
        <lane id=":B1_9_0" index="0" speed="6.51" length="9.03" shape="586.40,592.00 588.85,591.65 590.60,590.60 591.65,588.85 592.00,586.40"/>
    </edge>
    <edge id=":B1_10" function="internal">
        <lane id=":B1_10_0" index="0" speed="13.89" length="27.20" shape="586.40,595.20 613.60,595.20"/>
    </edge>
    <edge id=":B1_11" function="internal">
        <lane id=":B1_11_0" index="0" speed="10.36" length="24.51" shape="586.40,598.40 593.05,599.35 597.80,602.20 600.65,606.95 601.60,613.60"/>
    </edge>
    <edge id=":B2_0" function="internal">
        <lane id=":B2_0_0" index="0" speed="6.51" length="9.03" shape="592.00,913.60 591.65,911.15 590.60,909.40 588.85,908.35 586.40,908.00"/>
    </edge>
    <edge id=":B2_1" function="internal">
        <lane id=":B2_1_0" index="0" speed="13.89" length="27.20" shape="595.20,913.60 595.20,886.40"/>
    </edge>
    <edge id=":B2_2" function="internal">
        <lane id=":B2_2_0" index="0" speed="10.36" length="24.51" shape="598.40,913.60 599.35,906.95 602.20,902.20 606.95,899.35 613.60,898.40"/>
    </edge>
    <edge id=":B2_3" function="internal">
        <lane id=":B2_3_0" index="0" speed="6.51" length="9.03" shape="613.60,908.00 611.15,908.35 609.40,909.40 608.35,911.15 608.00,913.60"/>
    </edge>
    <edge id=":B2_4" function="internal">
        <lane id=":B2_4_0" index="0" speed="13.89" length="27.20" shape="613.60,904.80 586.40,904.80"/>
    </edge>
    <edge id=":B2_5" function="internal">
        <lane id=":B2_5_0" index="0" speed="10.36" length="24.51" shape="613.60,901.60 606.95,900.65 602.20,897.80 599.35,893.05 598.40,886.40"/>
    </edge>
    <edge id=":B2_6" function="internal">
        <lane id=":B2_6_0" index="0" speed="6.51" length="9.03" shape="608.00,886.40 608.35,888.85 609.40,890.60 611.15,891.65 613.60,892.00"/>
    </edge>
    <edge id=":B2_7" function="internal">
        <lane id=":B2_7_0" index="0" speed="13.89" length="27.20" shape="604.80,886.40 604.80,913.60"/>
    </edge>
    <edge id=":B2_8" function="internal">
        <lane id=":B2_8_0" index="0" speed="10.36" length="24.51" shape="601.60,886.40 600.65,893.05 597.80,897.80 593.05,900.65 586.40,901.60"/>
    </edge>
    <edge id=":B2_9" function="internal">
        <lane id=":B2_9_0" index="0" speed="6.51" length="9.03" shape="586.40,892.00 588.85,891.65 590.60,890.60 591.65,888.85 592.00,886.40"/>
    </edge>
    <edge id=":B2_10" function="internal">
        <lane id=":B2_10_0" index="0" speed="13.89" length="27.20" shape="586.40,895.20 613.60,895.20"/>
    </edge>
    <edge id=":B2_11" function="internal">
        <lane id=":B2_11_0" index="0" speed="10.36" length="24.51" shape="586.40,898.40 593.05,899.35 597.80,902.20 600.65,906.95 601.60,913.60"/>
    </edge>
    <edge id=":B3_0" function="internal">
        <lane id=":B3_0_0" index="0" speed="6.51" length="9.03" shape="592.00,1213.60 591.65,1211.15 590.60,1209.40 588.85,1208.35 586.40,1208.00"/>
    </edge>
    <edge id=":B3_1" function="internal">
        <lane id=":B3_1_0" index="0" speed="13.89" length="27.20" shape="595.20,1213.60 595.20,1186.40"/>
    </edge>
    <edge id=":B3_2" function="internal">
        <lane id=":B3_2_0" index="0" speed="10.36" length="24.51" shape="598.40,1213.60 599.35,1206.95 602.20,1202.20 606.95,1199.35 613.60,1198.40"/>
    </edge>
    <edge id=":B3_3" function="internal">
        <lane id=":B3_3_0" index="0" speed="6.51" length="9.03" shape="613.60,1208.00 611.15,1208.35 609.40,1209.40 608.35,1211.15 608.00,1213.60"/>
    </edge>
    <edge id=":B3_4" function="internal">
        <lane id=":B3_4_0" index="0" speed="13.89" length="27.20" shape="613.60,1204.80 586.40,1204.80"/>
    </edge>
    <edge id=":B3_5" function="internal">
        <lane id=":B3_5_0" index="0" speed="10.36" length="24.51" shape="613.60,1201.60 606.95,1200.65 602.20,1197.80 599.35,1193.05 598.40,1186.40"/>
    </edge>
    <edge id=":B3_6" function="internal">
        <lane id=":B3_6_0" index="0" speed="6.51" length="9.03" shape="608.00,1186.40 608.35,1188.85 609.40,1190.60 611.15,1191.65 613.60,1192.00"/>
    </edge>
    <edge id=":B3_7" function="internal">
        <lane id=":B3_7_0" index="0" speed="13.89" length="27.20" shape="604.80,1186.40 604.80,1213.60"/>
    </edge>
    <edge id=":B3_8" function="internal">
        <lane id=":B3_8_0" index="0" speed="10.36" length="24.51" shape="601.60,1186.40 600.65,1193.05 597.80,1197.80 593.05,1200.65 586.40,1201.60"/>
    </edge>
    <edge id=":B3_9" function="internal">
        <lane id=":B3_9_0" index="0" speed="6.51" length="9.03" shape="586.40,1192.00 588.85,1191.65 590.60,1190.60 591.65,1188.85 592.00,1186.40"/>
    </edge>
    <edge id=":B3_10" function="internal">
        <lane id=":B3_10_0" index="0" speed="13.89" length="27.20" shape="586.40,1195.20 613.60,1195.20"/>
    </edge>
    <edge id=":B3_11" function="internal">
        <lane id=":B3_11_0" index="0" speed="10.36" length="24.51" shape="586.40,1198.40 593.05,1199.35 597.80,1202.20 600.65,1206.95 601.60,1213.60"/>
    </edge>
    <edge id=":B4_0" function="internal">
        <lane id=":B4_0_0" index="0" speed="6.51" length="9.03" shape="592.00,1513.60 591.65,1511.15 590.60,1509.40 588.85,1508.35 586.40,1508.00"/>
    </edge>
    <edge id=":B4_1" function="internal">
        <lane id=":B4_1_0" index="0" speed="13.89" length="27.20" shape="595.20,1513.60 595.20,1486.40"/>
    </edge>
    <edge id=":B4_2" function="internal">
        <lane id=":B4_2_0" index="0" speed="10.36" length="24.51" shape="598.40,1513.60 599.35,1506.95 602.20,1502.20 606.95,1499.35 613.60,1498.40"/>
    </edge>
    <edge id=":B4_3" function="internal">
        <lane id=":B4_3_0" index="0" speed="6.51" length="9.03" shape="613.60,1508.00 611.15,1508.35 609.40,1509.40 608.35,1511.15 608.00,1513.60"/>
    </edge>
    <edge id=":B4_4" function="internal">
        <lane id=":B4_4_0" index="0" speed="13.89" length="27.20" shape="613.60,1504.80 586.40,1504.80"/>
    </edge>
    <edge id=":B4_5" function="internal">
        <lane id=":B4_5_0" index="0" speed="10.36" length="24.51" shape="613.60,1501.60 606.95,1500.65 602.20,1497.80 599.35,1493.05 598.40,1486.40"/>
    </edge>
    <edge id=":B4_6" function="internal">
        <lane id=":B4_6_0" index="0" speed="6.51" length="9.03" shape="608.00,1486.40 608.35,1488.85 609.40,1490.60 611.15,1491.65 613.60,1492.00"/>
    </edge>
    <edge id=":B4_7" function="internal">
        <lane id=":B4_7_0" index="0" speed="13.89" length="27.20" shape="604.80,1486.40 604.80,1513.60"/>
    </edge>
    <edge id=":B4_8" function="internal">
        <lane id=":B4_8_0" index="0" speed="10.36" length="24.51" shape="601.60,1486.40 600.65,1493.05 597.80,1497.80 593.05,1500.65 586.40,1501.60"/>
    </edge>
    <edge id=":B4_9" function="internal">
        <lane id=":B4_9_0" index="0" speed="6.51" length="9.03" shape="586.40,1492.00 588.85,1491.65 590.60,1490.60 591.65,1488.85 592.00,1486.40"/>
    </edge>
    <edge id=":B4_10" function="internal">
        <lane id=":B4_10_0" index="0" speed="13.89" length="27.20" shape="586.40,1495.20 613.60,1495.20"/>
    </edge>
    <edge id=":B4_11" function="internal">
        <lane id=":B4_11_0" index="0" speed="10.36" length="24.51" shape="586.40,1498.40 593.05,1499.35 597.80,1502.20 600.65,1506.95 601.60,1513.60"/>
    </edge>
    <edge id=":C0_0" function="internal">
        <lane id=":C0_0_0" index="0" speed="6.51" length="9.03" shape="892.00,313.60 891.65,311.15 890.60,309.40 888.85,308.35 886.40,308.00"/>
    </edge>
    <edge id=":C0_1" function="internal">
        <lane id=":C0_1_0" index="0" speed="13.89" length="27.20" shape="895.20,313.60 895.20,286.40"/>
    </edge>
    <edge id=":C0_2" function="internal">
        <lane id=":C0_2_0" index="0" speed="10.36" length="24.51" shape="898.40,313.60 899.35,306.95 902.20,302.20 906.95,299.35 913.60,298.40"/>
    </edge>
    <edge id=":C0_3" function="internal">
        <lane id=":C0_3_0" index="0" speed="6.51" length="9.03" shape="913.60,308.00 911.15,308.35 909.40,309.40 908.35,311.15 908.00,313.60"/>
    </edge>
    <edge id=":C0_4" function="internal">
        <lane id=":C0_4_0" index="0" speed="13.89" length="27.20" shape="913.60,304.80 886.40,304.80"/>
    </edge>
    <edge id=":C0_5" function="internal">
        <lane id=":C0_5_0" index="0" speed="10.36" length="24.51" shape="913.60,301.60 906.95,300.65 902.20,297.80 899.35,293.05 898.40,286.40"/>
    </edge>
    <edge id=":C0_6" function="internal">
        <lane id=":C0_6_0" index="0" speed="6.51" length="9.03" shape="908.00,286.40 908.35,288.85 909.40,290.60 911.15,291.65 913.60,292.00"/>
    </edge>
    <edge id=":C0_7" function="internal">
        <lane id=":C0_7_0" index="0" speed="13.89" length="27.20" shape="904.80,286.40 904.80,313.60"/>
    </edge>
    <edge id=":C0_8" function="internal">
        <lane id=":C0_8_0" index="0" speed="10.36" length="24.51" shape="901.60,286.40 900.65,293.05 897.80,297.80 893.05,300.65 886.40,301.60"/>
    </edge>
    <edge id=":C0_9" function="internal">
        <lane id=":C0_9_0" index="0" speed="6.51" length="9.03" shape="886.40,292.00 888.85,291.65 890.60,290.60 891.65,288.85 892.00,286.40"/>
    </edge>
    <edge id=":C0_10" function="internal">
        <lane id=":C0_10_0" index="0" speed="13.89" length="27.20" shape="886.40,295.20 913.60,295.20"/>
    </edge>
    <edge id=":C0_11" function="internal">
        <lane id=":C0_11_0" index="0" speed="10.36" length="24.51" shape="886.40,298.40 893.05,299.35 897.80,302.20 900.65,306.95 901.60,313.60"/>
    </edge>
    <edge id=":C1_0" function="internal">
        <lane id=":C1_0_0" index="0" speed="6.51" length="9.03" shape="892.00,613.60 891.65,611.15 890.60,609.40 888.85,608.35 886.40,608.00"/>
    </edge>
    <edge id=":C1_1" function="internal">
        <lane id=":C1_1_0" index="0" speed="13.89" length="27.20" shape="895.20,613.60 895.20,586.40"/>
    </edge>
    <edge id=":C1_2" function="internal">
        <lane id=":C1_2_0" index="0" speed="10.36" length="24.51" shape="898.40,613.60 899.35,606.95 902.20,602.20 906.95,599.35 913.60,598.40"/>
    </edge>
    <edge id=":C1_3" function="internal">
        <lane id=":C1_3_0" index="0" speed="6.51" length="9.03" shape="913.60,608.00 911.15,608.35 909.40,609.40 908.35,611.15 908.00,613.60"/>
    </edge>
    <edge id=":C1_4" function="internal">
        <lane id=":C1_4_0" index="0" speed="13.89" length="27.20" shape="913.60,604.80 886.40,604.80"/>
    </edge>
    <edge id=":C1_5" function="internal">
        <lane id=":C1_5_0" index="0" speed="10.36" length="24.51" shape="913.60,601.60 906.95,600.65 902.20,597.80 899.35,593.05 898.40,586.40"/>
    </edge>
    <edge id=":C1_6" function="internal">
        <lane id=":C1_6_0" index="0" speed="6.51" length="9.03" shape="908.00,586.40 908.35,588.85 909.40,590.60 911.15,591.65 913.60,592.00"/>
    </edge>
    <edge id=":C1_7" function="internal">
        <lane id=":C1_7_0" index="0" speed="13.89" length="27.20" shape="904.80,586.40 904.80,613.60"/>
    </edge>
    <edge id=":C1_8" function="internal">
        <lane id=":C1_8_0" index="0" speed="10.36" length="24.51" shape="901.60,586.40 900.65,593.05 897.80,597.80 893.05,600.65 886.40,601.60"/>
    </edge>
    <edge id=":C1_9" function="internal">
        <lane id=":C1_9_0" index="0" speed="6.51" length="9.03" shape="886.40,592.00 888.85,591.65 890.60,590.60 891.65,588.85 892.00,586.40"/>
    </edge>
    <edge id=":C1_10" function="internal">
        <lane id=":C1_10_0" index="0" speed="13.89" length="27.20" shape="886.40,595.20 913.60,595.20"/>
    </edge>
    <edge id=":C1_11" function="internal">
        <lane id=":C1_11_0" index="0" speed="10.36" length="24.51" shape="886.40,598.40 893.05,599.35 897.80,602.20 900.65,606.95 901.60,613.60"/>
    </edge>
    <edge id=":C2_0" function="internal">
        <lane id=":C2_0_0" index="0" speed="6.51" length="9.03" shape="892.00,913.60 891.65,911.15 890.60,909.40 888.85,908.35 886.40,908.00"/>
    </edge>
    <edge id=":C2_1" function="internal">
        <lane id=":C2_1_0" index="0" speed="13.89" length="27.20" shape="895.20,913.60 895.20,886.40"/>
    </edge>
    <edge id=":C2_2" function="internal">
        <lane id=":C2_2_0" index="0" speed="10.36" length="24.51" shape="898.40,913.60 899.35,906.95 902.20,902.20 906.95,899.35 913.60,898.40"/>
    </edge>
    <edge id=":C2_3" function="internal">