<?xml version="1.0" encoding="UTF-8"?>

<!-- generated on 2024-09-09 09:54:24 by Eclipse SUMO duarouter Version 1.18.0
<configuration xmlns:xsi="http://www.w3.org/2001/XMLSchema-instance" xsi:noNamespaceSchemaLocation="http://sumo.dlr.de/xsd/duarouterConfiguration.xsd">

    <input>
        <net-file value="5x5.net.xml"/>
        <route-files value="trip.trip.xml"/>
    </input>

    <output>
        <output-file value="Demand_20.rou.xml"/>
    </output>

    <processing>
        <randomize-flows value="true"/>
        <weights.random-factor value="1.5"/>
    </processing>

    <defaults>
        <departspeed value="10"/>
    </defaults>

    <random_number>
        <seed value="30"/>
    </random_number>

</configuration>
-->

<routes xmlns:xsi="http://www.w3.org/2001/XMLSchema-instance" xsi:noNamespaceSchemaLocation="http://sumo.dlr.de/xsd/routes_file.xsd">
    <vType id="NV" length="5.00" minGap="2.00" maxSpeed="60.00" speedFactor="normc(1.00,0.00)" guiShape="passenger" color="green" accel="3" decel="5" sigma="0.5" tau="1.0"/>
    <vehicle id="OD27_NV.0" type="NV" depart="1.27" departSpeed="10">
        <route edges="bottom4E0 E0E1 E1right1"/>
    </vehicle>
    <vehicle id="OD247_NV.0" type="NV" depart="1.30" departSpeed="10">
        <route edges="right3E3 E3D3 D3C3 C3C4 C4B4 B4top1"/>
    </vehicle>
    <vehicle id="OD327_NV.0" type="NV" depart="1.95" departSpeed="10">
        <route edges="top0A4 A4A3 A3A2 A2A1 A1A0 A0bottom0"/>
    </vehicle>
    <vehicle id="OD106_NV.0" type="NV" depart="2.01" departSpeed="10">
        <route edges="right1E1 E1E2 E2E3 E3E4 E4D4 D4C4 C4top2"/>
    </vehicle>
    <vehicle id="OD211_NV.0" type="NV" depart="3.26" departSpeed="10">
        <route edges="bottom1B0 B0B1 B1B2 B2B3 B3B4 B4C4 C4D4 D4top3"/>
    </vehicle>
    <vehicle id="OD248_NV.0" type="NV" depart="4.21" departSpeed="10">
        <route edges="right3E3 E3E4 E4right4"/>
    </vehicle>
    <vehicle id="OD177_NV.0" type="NV" depart="4.99" departSpeed="10">
        <route edges="right0E0 E0bottom4"/>
    </vehicle>
    <vehicle id="OD271_NV.0" type="NV" depart="5.11" departSpeed="10">
        <route edges="bottom3D0 D0C0 C0bottom2"/>
    </vehicle>
    <vehicle id="OD60_NV.0" type="NV" depart="5.30" departSpeed="10">
        <route edges="top4E4 E4E3 E3D3 D3D2 D2C2 C2B2 B2B1 B1A1 A1A0 A0bottom0"/>
    </vehicle>
    <vehicle id="OD78_NV.0" type="NV" depart="5.62" departSpeed="10">
        <route edges="left1A1 A1B1 B1B2 B2B3 B3C3 C3D3 D3D4 D4top3"/>
    </vehicle>
    <vehicle id="OD296_NV.0" type="NV" depart="5.68" departSpeed="10">
        <route edges="bottom0A0 A0B0 B0B1 B1B2 B2C2 C2D2 D2E2 E2right2"/>
    </vehicle>
    <vehicle id="OD351_NV.0" type="NV" depart="5.70" departSpeed="10">
        <route edges="right2E2 E2E1 E1right1"/>
    </vehicle>
    <vehicle id="OD226_NV.0" type="NV" depart="6.40" departSpeed="10">
        <route edges="bottom1B0 B0C0 C0D0 D0bottom3"/>
    </vehicle>
    <vType id="RV" length="5.00" minGap="2.00" maxSpeed="60.00" speedFactor="normc(1.00,0.00)" guiShape="passenger" color="red" accel="3" decel="5" sigma="0.5" tau="1.0"/>
    <vehicle id="OD50_RV.0" type="RV" depart="6.55" departSpeed="10">
        <route edges="left3A3 A3A4 A4left4"/>
    </vehicle>
    <vehicle id="OD198_NV.0" type="NV" depart="6.98" departSpeed="10">
        <route edges="top3D4 D4C4 C4B4 B4A4 A4top0"/>
    </vehicle>
    <vehicle id="OD327_NV.1" type="NV" depart="7.35" departSpeed="10">
        <route edges="top0A4 A4A3 A3A2 A2A1 A1A0 A0bottom0"/>
    </vehicle>
    <vehicle id="OD324_RV.0" type="RV" depart="7.36" departSpeed="10">
        <route edges="top0A4 A4B4 B4C4 C4D4 D4E4 E4right4"/>
    </vehicle>
    <vehicle id="OD4_NV.0" type="NV" depart="7.64" departSpeed="10">
        <route edges="top1B4 B4B3 B3B2 B2B1 B1C1 C1C0 C0bottom2"/>
    </vehicle>
    <vehicle id="OD252_NV.0" type="NV" depart="7.98" departSpeed="10">
        <route edges="right3E3 E3E2 E2E1 E1D1 D1C1 C1C0 C0bottom2"/>
    </vehicle>
    <vehicle id="OD286_NV.0" type="NV" depart="8.11" departSpeed="10">
        <route edges="bottom0A0 A0B0 B0B1 B1B2 B2C2 C2D2 D2E2 E2E3 E3E4 E4right4"/>
    </vehicle>
    <vehicle id="OD322_RV.0" type="RV" depart="8.64" departSpeed="10">
        <route edges="left2A2 A2B2 B2B1 B1C1 C1D1 D1E1 E1E0 E0right0"/>
    </vehicle>
    <vehicle id="OD286_NV.1" type="NV" depart="8.69" departSpeed="10">
        <route edges="bottom0A0 A0B0 B0B1 B1B2 B2C2 C2C3 C3C4 C4D4 D4E4 E4right4"/>
    </vehicle>
    <vehicle id="OD45_RV.0" type="RV" depart="9.07" departSpeed="10">
        <route edges="left3A3 A3A4 A4top0"/>
    </vehicle>
    <vehicle id="OD237_NV.0" type="NV" depart="9.40" departSpeed="10">
        <route edges="top2C4 C4D4 D4D3 D3D2 D2E2 E2E1 E1right1"/>
    </vehicle>
    <vehicle id="OD275_NV.0" type="NV" depart="9.52" departSpeed="10">
        <route edges="bottom3D0 D0D1 D1E1 E1right1"/>
    </vehicle>
    <vehicle id="OD336_NV.0" type="NV" depart="9.83" departSpeed="10">
        <route edges="top0A4 A4left4"/>
    </vehicle>
    <vehicle id="OD273_NV.0" type="NV" depart="9.98" departSpeed="10">
        <route edges="bottom3D0 D0C0 C0B0 B0A0 A0A1 A1left1"/>
    </vehicle>
    <vehicle id="OD342_NV.0" type="NV" depart="10.18" departSpeed="10">
        <route edges="right2E2 E2D2 D2C2 C2C3 C3B3 B3B4 B4top1"/>
    </vehicle>
    <vehicle id="OD203_NV.0" type="NV" depart="10.66" departSpeed="10">
        <route edges="top3D4 D4C4 C4B4 B4B3 B3A3 A3A2 A2left2"/>
    </vehicle>
    <vehicle id="OD24_NV.0" type="NV" depart="10.77" departSpeed="10">
        <route edges="bottom4E0 E0E1 E1D1 D1D0 D0E0 E0bottom4"/>
    </vehicle>
    <vehicle id="OD200_RV.0" type="RV" depart="11.69" departSpeed="10">
        <route edges="top3D4 D4E4 E4E3 E3E2 E2right2"/>
    </vehicle>
    <vehicle id="OD184_NV.0" type="NV" depart="11.82" departSpeed="10">
        <route edges="right0E0 E0D0 D0D1 D1C1 C1B1 B1B2 B2A2 A2left2"/>
    </vehicle>
    <vehicle id="OD210_RV.0" type="RV" depart="11.89" departSpeed="10">
        <route edges="bottom1B0 B0C0 C0C1 C1C2 C2D2 D2E2 E2E3 E3E4 E4right4"/>
    </vehicle>
    <vehicle id="OD339_NV.0" type="NV" depart="11.94" departSpeed="10">
        <route edges="top0A4 A4A3 A3left3"/>
    </vehicle>
    <vehicle id="OD271_NV.1" type="NV" depart="12.25" departSpeed="10">
        <route edges="bottom3D0 D0C0 C0bottom2"/>
    </vehicle>
    <vehicle id="OD131_NV.0" type="NV" depart="12.41" departSpeed="10">
        <route edges="right4E4 E4E3 E3E2 E2E1 E1D1 D1D0 D0bottom3"/>
    </vehicle>
    <vehicle id="OD253_NV.0" type="NV" depart="12.47" departSpeed="10">
        <route edges="right3E3 E3E2 E2E1 E1E0 E0bottom4"/>
    </vehicle>
    <vehicle id="OD334_NV.0" type="NV" depart="12.80" departSpeed="10">
        <route edges="top0A4 A4B4 B4B3 B3C3 C3C2 C2D2 D2E2 E2right2"/>
    </vehicle>
    <vehicle id="OD264_NV.0" type="NV" depart="12.98" departSpeed="10">
        <route edges="right3E3 E3E2 E2E1 E1D1 D1D0 D0bottom3"/>
    </vehicle>
    <vehicle id="OD208_NV.0" type="NV" depart="13.29" departSpeed="10">
        <route edges="top3D4 D4D3 D3E3 E3E2 E2E1 E1E0 E0right0"/>
    </vehicle>
    <vehicle id="OD154_RV.0" type="RV" depart="13.81" departSpeed="10">
        <route edges="bottom2C0 C0C1 C1C2 C2C3 C3D3 D3D4 D4top3"/>
    </vehicle>
    <vehicle id="OD82_NV.0" type="NV" depart="14.95" departSpeed="10">
        <route edges="left1A1 A1A2 A2B2 B2B1 B1A1 A1left1"/>
    </vehicle>
    <vehicle id="OD277_NV.0" type="NV" depart="15.20" departSpeed="10">
        <route edges="bottom3D0 D0D1 D1D2 D2E2 E2right2"/>
    </vehicle>
    <vehicle id="OD29_NV.0" type="NV" depart="15.37" departSpeed="10">
        <route edges="bottom4E0 E0E1 E1E2 E2right2"/>
    </vehicle>
    <vehicle id="OD216_NV.0" type="NV" depart="15.42" departSpeed="10">
        <route edges="bottom1B0 B0A0 A0A1 A1left1"/>
    </vehicle>
    <vehicle id="OD2_NV.0" type="NV" depart="15.64" departSpeed="10">
        <route edges="top1B4 B4C4 C4D4 D4E4 E4top4"/>
    </vehicle>
    <vehicle id="OD97_RV.0" type="RV" depart="16.30" departSpeed="10">
        <route edges="right1E1 E1E2 E2E3 E3E4 E4D4 D4top3"/>
    </vehicle>
    <vehicle id="OD225_NV.0" type="NV" depart="16.41" departSpeed="10">
        <route edges="bottom1B0 B0C0 C0C1 C1D1 D1D2 D2E2 E2E3 E3right3"/>
    </vehicle>
    <vehicle id="OD290_NV.0" type="NV" depart="16.94" departSpeed="10">
        <route edges="bottom0A0 A0B0 B0C0 C0bottom2"/>
    </vehicle>
    <vehicle id="OD353_NV.0" type="NV" depart="17.78" departSpeed="10">
        <route edges="right2E2 E2D2 D2D3 D3E3 E3E2 E2right2"/>
    </vehicle>
    <vehicle id="OD198_NV.1" type="NV" depart="18.00" departSpeed="10">
        <route edges="top3D4 D4C4 C4B4 B4A4 A4top0"/>
    </vehicle>
    <vehicle id="OD232_NV.0" type="NV" depart="18.34" departSpeed="10">
        <route edges="top2C4 C4C3 C3C2 C2B2 B2B1 B1B0 B0A0 A0bottom0"/>
    </vehicle>
    <vehicle id="OD274_NV.0" type="NV" depart="18.54" departSpeed="10">
        <route edges="bottom3D0 D0D1 D1C1 C1C2 C2B2 B2B3 B3B4 B4A4 A4top0"/>
    </vehicle>
    <vehicle id="OD237_NV.1" type="NV" depart="18.61" departSpeed="10">
        <route edges="top2C4 C4D4 D4E4 E4E3 E3E2 E2E1 E1right1"/>
    </vehicle>
    <vehicle id="OD171_NV.0" type="NV" depart="18.89" departSpeed="10">
        <route edges="right0E0 E0D0 D0C0 C0C1 C1C2 C2B2 B2B3 B3B4 B4top1"/>
    </vehicle>
    <vehicle id="OD232_NV.1" type="NV" depart="19.33" departSpeed="10">
        <route edges="top2C4 C4B4 B4B3 B3B2 B2B1 B1A1 A1A0 A0bottom0"/>
    </vehicle>
    <vehicle id="OD91_NV.0" type="NV" depart="19.62" departSpeed="10">
        <route edges="left1A1 A1A2 A2A3 A3left3"/>
    </vehicle>
    <vehicle id="OD282_NV.0" type="NV" depart="19.69" departSpeed="10">
        <route edges="bottom3D0 D0D1 D1D2 D2E2 E2E3 E3right3"/>
    </vehicle>
    <vehicle id="OD66_NV.0" type="NV" depart="19.81" departSpeed="10">
        <route edges="top4E4 E4E3 E3D3 D3C3 C3B3 B3B2 B2B1 B1B0 B0bottom1"/>
    </vehicle>
    <vehicle id="OD107_NV.0" type="NV" depart="19.86" departSpeed="10">
        <route edges="right1E1 E1E2 E2D2 D2D3 D3D4 D4C4 C4B4 B4A4 A4left4"/>
    </vehicle>
    <vehicle id="OD244_RV.0" type="RV" depart="19.97" departSpeed="10">
        <route edges="top2C4 C4D4 D4E4 E4E3 E3right3"/>
    </vehicle>
    <vehicle id="OD302_RV.0" type="RV" depart="20.10" departSpeed="10">
        <route edges="bottom0A0 A0B0 B0C0 C0D0 D0bottom3"/>
    </vehicle>
    <vehicle id="OD38_NV.0" type="NV" depart="20.15" departSpeed="10">
        <route edges="left3A3 A3A4 A4B4 B4top1"/>
    </vehicle>
    <vehicle id="OD268_NV.0" type="NV" depart="20.56" departSpeed="10">
        <route edges="bottom3D0 D0D1 D1D2 D2D3 D3D4 D4top3"/>
    </vehicle>
    <vehicle id="OD40_NV.0" type="NV" depart="20.72" departSpeed="10">
        <route edges="left3A3 A3A4 A4B4 B4C4 C4D4 D4E4 E4top4"/>
    </vehicle>
    <vehicle id="OD347_NV.0" type="NV" depart="20.79" departSpeed="10">
        <route edges="right2E2 E2E1 E1E0 E0D0 D0C0 C0bottom2"/>
    </vehicle>
    <vehicle id="OD376_RV.0" type="RV" depart="20.82" departSpeed="10">
        <route edges="left4A4 A4A3 A3A2 A2A1 A1A0 A0left0"/>
    </vehicle>
    <vehicle id="OD378_NV.0" type="NV" depart="20.86" departSpeed="10">
        <route edges="left4A4 A4B4 B4C4 C4D4 D4E4 E4E3 E3right3"/>
    </vehicle>
    <vehicle id="OD163_NV.0" type="NV" depart="20.90" departSpeed="10">
        <route edges="bottom2C0 C0C1 C1C2 C2C3 C3C4 C4top2"/>
    </vehicle>
    <vehicle id="OD18_NV.0" type="NV" depart="21.57" departSpeed="10">
        <route edges="top1B4 B4C4 C4D4 D4D3 D3E3 E3E2 E2E1 E1E0 E0right0"/>
    </vehicle>
    <vehicle id="OD42_NV.0" type="NV" depart="21.61" departSpeed="10">
        <route edges="left3A3 A3A2 A2A1 A1A0 A0B0 B0C0 C0bottom2"/>
    </vehicle>
    <vehicle id="OD271_NV.2" type="NV" depart="22.33" departSpeed="10">
        <route edges="bottom3D0 D0C0 C0bottom2"/>
    </vehicle>
    <vehicle id="OD313_NV.0" type="NV" depart="22.33" departSpeed="10">
        <route edges="left2A2 A2B2 B2C2 C2C1 C1D1 D1E1 E1right1"/>
    </vehicle>
    <vehicle id="OD39_RV.0" type="RV" depart="23.45" departSpeed="10">
        <route edges="left3A3 A3B3 B3C3 C3C4 C4D4 D4E4 E4right4"/>
    </vehicle>
    <vehicle id="OD249_NV.0" type="NV" depart="23.59" departSpeed="10">
        <route edges="right3E3 E3E4 E4D4 D4top3"/>
    </vehicle>
    <vehicle id="OD141_NV.0" type="NV" depart="24.00" departSpeed="10">
        <route edges="left0A0 A0B0 B0C0 C0D0 D0E0 E0E1 E1right1"/>
    </vehicle>
    <vehicle id="OD115_RV.0" type="RV" depart="24.65" departSpeed="10">
        <route edges="right4E4 E4E3 E3D3 D3D4 D4E4 E4right4"/>
    </vehicle>
    <vehicle id="OD253_NV.1" type="NV" depart="24.98" departSpeed="10">
        <route edges="right3E3 E3E2 E2E1 E1E0 E0bottom4"/>
    </vehicle>
    <vehicle id="OD159_NV.0" type="NV" depart="25.12" departSpeed="10">
        <route edges="bottom2C0 C0C1 C1B1 B1A1 A1left1"/>
    </vehicle>
    <vehicle id="OD326_NV.0" type="NV" depart="26.21" departSpeed="10">
        <route edges="top0A4 A4B4 B4C4 C4D4 D4E4 E4top4"/>
    </vehicle>
    <vehicle id="OD130_NV.0" type="NV" depart="26.43" departSpeed="10">
        <route edges="right4E4 E4E3 E3right3"/>
    </vehicle>
    <vehicle id="OD87_NV.0" type="NV" depart="26.53" departSpeed="10">
        <route edges="left1A1 A1A2 A2A3 A3B3 B3C3 C3C4 C4top2"/>
    </vehicle>
    <vehicle id="OD245_NV.0" type="NV" depart="27.21" departSpeed="10">
        <route edges="top2C4 C4D4 D4D3 D3D2 D2D1 D1D0 D0bottom3"/>
    </vehicle>
    <vehicle id="OD105_NV.0" type="NV" depart="27.87" departSpeed="10">
        <route edges="right1E1 E1E2 E2right2"/>
    </vehicle>
    <vehicle id="OD176_RV.0" type="RV" depart="28.62" departSpeed="10">
        <route edges="right0E0 E0D0 D0C0 C0bottom2"/>
    </vehicle>
    <vehicle id="OD81_NV.0" type="NV" depart="28.97" departSpeed="10">
        <route edges="left1A1 A1B1 B1B0 B0C0 C0D0 D0E0 E0bottom4"/>
    </vehicle>
    <vehicle id="OD124_NV.0" type="NV" depart="29.09" departSpeed="10">
        <route edges="right4E4 E4E3 E3E2 E2right2"/>
    </vehicle>
    <vehicle id="OD332_NV.0" type="NV" depart="29.17" departSpeed="10">
        <route edges="top0A4 A4A3 A3A2 A2B2 B2C2 C2C1 C1D1 D1E1 E1right1"/>
    </vehicle>
    <vehicle id="OD236_NV.0" type="NV" depart="29.19" departSpeed="10">
        <route edges="top2C4 C4B4 B4A4 A4top0"/>
    </vehicle>
    <vehicle id="OD139_RV.0" type="RV" depart="29.81" departSpeed="10">
        <route edges="left0A0 A0B0 B0C0 C0D0 D0E0 E0bottom4"/>
    </vehicle>
    <vehicle id="OD53_NV.0" type="NV" depart="29.93" departSpeed="10">
        <route edges="left3A3 A3A2 A2B2 B2B3 B3A3 A3left3"/>
    </vehicle>
    <vehicle id="OD189_RV.0" type="RV" depart="30.67" departSpeed="10">
        <route edges="right0E0 E0E1 E1D1 D1D0 D0E0 E0right0"/>
    </vehicle>
    <vehicle id="OD221_RV.0" type="RV" depart="31.32" departSpeed="10">
        <route edges="bottom1B0 B0B1 B1A1 A1A2 A2A3 A3A4 A4left4"/>
    </vehicle>
    <vehicle id="OD172_NV.0" type="NV" depart="31.90" departSpeed="10">
        <route edges="right0E0 E0E1 E1E2 E2E3 E3E4 E4right4"/>
    </vehicle>
    <vehicle id="OD216_NV.1" type="NV" depart="31.91" departSpeed="10">
        <route edges="bottom1B0 B0B1 B1A1 A1left1"/>
    </vehicle>
    <vehicle id="OD94_NV.0" type="NV" depart="32.29" departSpeed="10">
        <route edges="left1A1 A1B1 B1C1 C1C0 C0D0 D0E0 E0right0"/>
    </vehicle>
    <vehicle id="OD122_RV.0" type="RV" depart="32.37" departSpeed="10">
        <route edges="right4E4 E4E3 E3E2 E2E1 E1right1"/>
    </vehicle>
    <vehicle id="OD111_NV.0" type="NV" depart="33.30" departSpeed="10">
        <route edges="right1E1 E1E2 E2E3 E3right3"/>
    </vehicle>
    <vehicle id="OD121_NV.0" type="NV" depart="33.87" departSpeed="10">
        <route edges="right4E4 E4D4 D4C4 C4B4 B4A4 A4top0"/>
    </vehicle>
    <vehicle id="OD99_NV.0" type="NV" depart="33.95" departSpeed="10">
        <route edges="right1E1 E1E0 E0D0 D0C0 C0B0 B0A0 A0bottom0"/>
    </vehicle>
    <vehicle id="OD150_NV.0" type="NV" depart="34.44" departSpeed="10">
        <route edges="left0A0 A0B0 B0C0 C0D0 D0bottom3"/>
    </vehicle>
    <vehicle id="OD337_RV.0" type="RV" depart="34.82" departSpeed="10">
        <route edges="top0A4 A4A3 A3A2 A2left2"/>
    </vehicle>
    <vehicle id="OD29_NV.1" type="NV" depart="35.36" departSpeed="10">
        <route edges="bottom4E0 E0E1 E1E2 E2right2"/>
    </vehicle>
    <vehicle id="OD136_NV.0" type="NV" depart="36.13" departSpeed="10">
        <route edges="left0A0 A0B0 B0B1 B1B2 B2B3 B3C3 C3D3 D3D4 D4E4 E4top4"/>
    </vehicle>
    <vehicle id="OD1_NV.0" type="NV" depart="36.49" departSpeed="10">
        <route edges="top1B4 B4C4 C4D4 D4top3"/>
    </vehicle>
    <vehicle id="OD268_NV.1" type="NV" depart="36.60" departSpeed="10">
        <route edges="bottom3D0 D0D1 D1D2 D2D3 D3D4 D4top3"/>
    </vehicle>
    <vehicle id="OD152_RV.0" type="RV" depart="37.09" departSpeed="10">
        <route edges="bottom2C0 C0B0 B0B1 B1B2 B2B3 B3B4 B4top1"/>
    </vehicle>
    <vehicle id="OD58_RV.0" type="RV" depart="37.11" departSpeed="10">
        <route edges="top4E4 E4right4"/>
    </vehicle>
    <vehicle id="OD341_RV.0" type="RV" depart="37.87" departSpeed="10">
        <route edges="top0A4 A4A3 A3A2 A2A1 A1B1 B1C1 C1C0 C0D0 D0E0 E0right0"/>
    </vehicle>
    <vehicle id="OD26_RV.0" type="RV" depart="39.32" departSpeed="10">
        <route edges="bottom4E0 E0D0 D0C0 C0C1 C1C2 C2B2 B2B3 B3A3 A3A4 A4top0"/>
    </vehicle>
    <vehicle id="OD123_RV.0" type="RV" depart="39.45" departSpeed="10">
        <route edges="right4E4 E4D4 D4C4 C4C3 C3C2 C2B2 B2B1 B1B0 B0bottom1"/>
    </vehicle>
    <vehicle id="OD198_RV.0" type="RV" depart="39.67" departSpeed="10">
        <route edges="top3D4 D4C4 C4B4 B4A4 A4top0"/>
    </vehicle>
    <vehicle id="OD263_NV.0" type="NV" depart="39.77" departSpeed="10">
        <route edges="right3E3 E3E2 E2D2 D2D3 D3E3 E3right3"/>
    </vehicle>
    <vehicle id="OD234_RV.0" type="RV" depart="39.84" departSpeed="10">
        <route edges="top2C4 C4C3 C3C2 C2C1 C1D1 D1E1 E1E0 E0bottom4"/>
    </vehicle>
    <vehicle id="OD286_NV.2" type="NV" depart="40.32" departSpeed="10">
        <route edges="bottom0A0 A0A1 A1A2 A2B2 B2C2 C2C3 C3D3 D3E3 E3E4 E4right4"/>
    </vehicle>
    <vehicle id="OD291_NV.0" type="NV" depart="40.78" departSpeed="10">
        <route edges="bottom0A0 A0B0 B0C0 C0D0 D0E0 E0bottom4"/>
    </vehicle>
    <vehicle id="OD45_NV.0" type="NV" depart="42.09" departSpeed="10">
        <route edges="left3A3 A3A4 A4top0"/>
    </vehicle>
    <vehicle id="OD38_NV.1" type="NV" depart="42.79" departSpeed="10">
        <route edges="left3A3 A3A4 A4B4 B4top1"/>
    </vehicle>
    <vehicle id="OD250_NV.0" type="NV" depart="42.94" departSpeed="10">
        <route edges="right3E3 E3E4 E4top4"/>
    </vehicle>
    <vehicle id="OD25_NV.0" type="NV" depart="42.94" departSpeed="10">
        <route edges="bottom4E0 E0D0 D0C0 C0B0 B0A0 A0A1 A1left1"/>
    </vehicle>
    <vehicle id="OD71_NV.0" type="NV" depart="43.43" departSpeed="10">
        <route edges="top4E4 E4E3 E3D3 D3C3 C3B3 B3B2 B2A2 A2A1 A1A0 A0left0"/>
    </vehicle>
    <vehicle id="OD269_NV.0" type="NV" depart="43.55" departSpeed="10">
        <route edges="bottom3D0 D0D1 D1D2 D2E2 E2E3 E3E4 E4top4"/>
    </vehicle>
    <vehicle id="OD324_NV.0" type="NV" depart="44.09" departSpeed="10">
        <route edges="top0A4 A4B4 B4C4 C4D4 D4E4 E4right4"/>
    </vehicle>
    <vehicle id="OD189_NV.0" type="NV" depart="44.41" departSpeed="10">
        <route edges="right0E0 E0D0 D0D1 D1E1 E1E0 E0right0"/>
    </vehicle>
    <vehicle id="OD170_NV.0" type="NV" depart="45.15" departSpeed="10">
        <route edges="bottom2C0 C0D0 D0E0 E0right0"/>
    </vehicle>
    <vehicle id="OD225_NV.1" type="NV" depart="45.53" departSpeed="10">
        <route edges="bottom1B0 B0B1 B1B2 B2C2 C2D2 D2E2 E2E3 E3right3"/>
    </vehicle>
    <vehicle id="OD338_NV.0" type="NV" depart="45.70" departSpeed="10">
        <route edges="top0A4 A4A3 A3A2 A2A1 A1A0 A0left0"/>
    </vehicle>
    <vehicle id="OD85_NV.0" type="NV" depart="46.24" departSpeed="10">
        <route edges="left1A1 A1A0 A0B0 B0bottom1"/>
    </vehicle>
    <vehicle id="OD236_RV.0" type="RV" depart="46.42" departSpeed="10">
        <route edges="top2C4 C4B4 B4A4 A4top0"/>
    </vehicle>
    <vehicle id="OD183_NV.0" type="NV" depart="46.62" departSpeed="10">
        <route edges="right0E0 E0D0 D0D1 D1C1 C1B1 B1B2 B2B3 B3A3 A3A4 A4left4"/>
    </vehicle>
    <vehicle id="OD87_NV.1" type="NV" depart="46.95" departSpeed="10">
        <route edges="left1A1 A1A2 A2B2 B2C2 C2C3 C3C4 C4top2"/>
    </vehicle>
    <vehicle id="OD354_NV.0" type="NV" depart="47.31" departSpeed="10">
        <route edges="right2E2 E2E3 E3D3 D3C3 C3C4 C4top2"/>
    </vehicle>
    <vehicle id="OD196_NV.0" type="NV" depart="47.34" departSpeed="10">
        <route edges="top3D4 D4D3 D3D2 D2D1 D1D0 D0E0 E0bottom4"/>
    </vehicle>
    <vehicle id="OD67_NV.0" type="NV" depart="48.07" departSpeed="10">
        <route edges="top4E4 E4E3 E3E2 E2right2"/>
    </vehicle>
    <vehicle id="OD180_NV.0" type="NV" depart="50.36" departSpeed="10">
        <route edges="right0E0 E0D0 D0C0 C0B0 B0bottom1"/>
    </vehicle>
    <vehicle id="OD324_NV.1" type="NV" depart="50.37" departSpeed="10">
        <route edges="top0A4 A4B4 B4C4 C4D4 D4E4 E4right4"/>
    </vehicle>
    <vehicle id="OD96_RV.0" type="RV" depart="50.66" departSpeed="10">
        <route edges="right1E1 E1E2 E2E3 E3E4 E4right4"/>
    </vehicle>
    <vehicle id="OD143_NV.0" type="NV" depart="51.01" departSpeed="10">
        <route edges="left0A0 A0A1 A1B1 B1C1 C1C2 C2D2 D2E2 E2right2"/>
    </vehicle>
    <vehicle id="OD352_NV.0" type="NV" depart="51.44" departSpeed="10">
        <route edges="right2E2 E2D2 D2C2 C2C1 C1B1 B1B0 B0bottom1"/>
    </vehicle>
    <vehicle id="OD299_RV.0" type="RV" depart="51.76" departSpeed="10">
        <route edges="bottom0A0 A0A1 A1A2 A2left2"/>
    </vehicle>
    <vehicle id="OD219_NV.0" type="NV" depart="51.78" departSpeed="10">
        <route edges="bottom1B0 B0B1 B1A1 A1A0 A0B0 B0bottom1"/>
    </vehicle>
    <vehicle id="OD34_NV.0" type="NV" depart="52.06" departSpeed="10">
        <route edges="bottom4E0 E0E1 E1E2 E2D2 D2D3 D3C3 C3B3 B3A3 A3left3"/>
    </vehicle>
    <vehicle id="OD231_NV.0" type="NV" depart="52.80" departSpeed="10">
        <route edges="top2C4 C4D4 D4E4 E4top4"/>
    </vehicle>
    <vehicle id="OD86_RV.0" type="RV" depart="53.12" departSpeed="10">
        <route edges="left1A1 A1A2 A2B2 B2C2 C2D2 D2E2 E2right2"/>
    </vehicle>
    <vehicle id="OD377_NV.0" type="NV" depart="53.23" departSpeed="10">
        <route edges="left4A4 A4A3 A3left3"/>
    </vehicle>
    <vehicle id="OD46_NV.0" type="NV" depart="53.62" departSpeed="10">
        <route edges="left3A3 A3B3 B3C3 C3D3 D3D2 D2D1 D1E1 E1right1"/>
    </vehicle>
    <vehicle id="OD165_NV.0" type="NV" depart="53.67" departSpeed="10">
        <route edges="bottom2C0 C0C1 C1B1 B1B2 B2A2 A2left2"/>
    </vehicle>
    <vehicle id="OD201_NV.0" type="NV" depart="53.90" departSpeed="10">
        <route edges="top3D4 D4C4 C4top2"/>
    </vehicle>
    <vehicle id="OD84_NV.0" type="NV" depart="54.19" departSpeed="10">
        <route edges="left1A1 A1B1 B1C1 C1D1 D1E1 E1right1"/>
    </vehicle>
    <vehicle id="OD319_NV.0" type="NV" depart="54.28" departSpeed="10">
        <route edges="left2A2 A2A1 A1A0 A0left0"/>
    </vehicle>
    <vehicle id="OD351_NV.1" type="NV" depart="54.66" departSpeed="10">
        <route edges="right2E2 E2E1 E1right1"/>
    </vehicle>
    <vehicle id="OD228_NV.0" type="NV" depart="54.74" departSpeed="10">
        <route edges="top2C4 C4B4 B4top1"/>
    </vehicle>
    <vehicle id="OD169_NV.0" type="NV" depart="54.85" departSpeed="10">
        <route edges="bottom2C0 C0D0 D0bottom3"/>
    </vehicle>
    <vehicle id="OD267_NV.0" type="NV" depart="55.07" departSpeed="10">
        <route edges="bottom3D0 D0D1 D1D2 D2D3 D3E3 E3E4 E4right4"/>
    </vehicle>
    <vehicle id="OD185_RV.0" type="RV" depart="55.14" departSpeed="10">
        <route edges="right0E0 E0D0 D0C0 C0B0 B0A0 A0left0"/>
    </vehicle>
    <vehicle id="OD156_NV.0" type="NV" depart="55.33" departSpeed="10">
        <route edges="bottom2C0 C0B0 B0A0 A0bottom0"/>
    </vehicle>
    <vehicle id="OD4_NV.1" type="NV" depart="55.46" departSpeed="10">
        <route edges="top1B4 B4B3 B3C3 C3C2 C2C1 C1C0 C0bottom2"/>
    </vehicle>
    <vehicle id="OD47_NV.0" type="NV" depart="55.58" departSpeed="10">
        <route edges="left3A3 A3A2 A2A1 A1A0 A0B0 B0bottom1"/>
    </vehicle>
    <vehicle id="OD58_NV.0" type="NV" depart="55.68" departSpeed="10">
        <route edges="top4E4 E4right4"/>
    </vehicle>
    <vehicle id="OD84_NV.1" type="NV" depart="56.07" departSpeed="10">
        <route edges="left1A1 A1B1 B1C1 C1D1 D1E1 E1right1"/>
    </vehicle>
    <vehicle id="OD238_RV.0" type="RV" depart="56.31" departSpeed="10">
        <route edges="top2C4 C4C3 C3C2 C2C1 C1C0 C0B0 B0bottom1"/>
    </vehicle>
    <vehicle id="OD331_NV.0" type="NV" depart="56.96" departSpeed="10">
        <route edges="top0A4 A4A3 A3B3 B3B4 B4A4 A4top0"/>
    </vehicle>
    <vehicle id="OD298_NV.0" type="NV" depart="56.96" departSpeed="10">
        <route edges="bottom0A0 A0A1 A1A2 A2A3 A3A4 A4left4"/>
    </vehicle>
    <vehicle id="OD15_NV.0" type="NV" depart="58.03" departSpeed="10">
        <route edges="top1B4 B4B3 B3A3 A3left3"/>
    </vehicle>
    <vehicle id="OD310_NV.0" type="NV" depart="58.51" departSpeed="10">
        <route edges="left2A2 A2A1 A1B1 B1B0 B0C0 C0D0 D0E0 E0bottom4"/>
    </vehicle>
    <vehicle id="OD244_NV.0" type="NV" depart="58.54" departSpeed="10">
        <route edges="top2C4 C4D4 D4D3 D3E3 E3right3"/>
    </vehicle>
    <vehicle id="OD69_NV.0" type="NV" depart="58.99" departSpeed="10">
        <route edges="top4E4 E4D4 D4C4 C4B4 B4A4 A4left4"/>
    </vehicle>
    <vehicle id="OD236_NV.1" type="NV" depart="59.02" departSpeed="10">
        <route edges="top2C4 C4B4 B4A4 A4top0"/>
    </vehicle>
    <vehicle id="OD47_NV.1" type="NV" depart="59.03" departSpeed="10">
        <route edges="left3A3 A3B3 B3B2 B2B1 B1B0 B0bottom1"/>
    </vehicle>
    <vehicle id="OD181_NV.0" type="NV" depart="59.24" departSpeed="10">
        <route edges="right0E0 E0E1 E1E2 E2right2"/>
    </vehicle>
    <vehicle id="OD66_NV.1" type="NV" depart="59.41" departSpeed="10">
        <route edges="top4E4 E4E3 E3D3 D3C3 C3C2 C2B2 B2B1 B1B0 B0bottom1"/>
    </vehicle>
    <vehicle id="OD171_NV.1" type="NV" depart="60.06" departSpeed="10">
        <route edges="right0E0 E0E1 E1D1 D1D2 D2C2 C2B2 B2B3 B3B4 B4top1"/>
    </vehicle>
    <vehicle id="OD335_NV.0" type="NV" depart="60.86" departSpeed="10">
        <route edges="top0A4 A4B4 B4C4 C4top2"/>
    </vehicle>
    <vehicle id="OD279_NV.0" type="NV" depart="62.33" departSpeed="10">
        <route edges="bottom3D0 D0D1 D1C1 C1C2 C2B2 B2B3 B3B4 B4A4 A4left4"/>
    </vehicle>
    <vehicle id="OD205_NV.0" type="NV" depart="63.15" departSpeed="10">
        <route edges="top3D4 D4C4 C4B4 B4B3 B3A3 A3left3"/>
    </vehicle>
    <vehicle id="OD98_NV.0" type="NV" depart="63.21" departSpeed="10">
        <route edges="right1E1 E1E2 E2E3 E3E4 E4top4"/>
    </vehicle>
    <vehicle id="OD367_NV.0" type="NV" depart="63.26" departSpeed="10">
        <route edges="left4A4 A4B4 B4B3 B3C3 C3C2 C2C1 C1D1 D1D0 D0E0 E0bottom4"/>
    </vehicle>
    <vehicle id="OD88_NV.0" type="NV" depart="63.79" departSpeed="10">
        <route edges="left1A1 A1A2 A2A3 A3A4 A4left4"/>
    </vehicle>
    <vehicle id="OD286_NV.3" type="NV" depart="63.90" departSpeed="10">
        <route edges="bottom0A0 A0B0 B0B1 B1B2 B2B3 B3C3 C3D3 D3E3 E3E4 E4right4"/>
    </vehicle>
    <vehicle id="OD51_NV.0" type="NV" depart="64.00" departSpeed="10">
        <route edges="left3A3 A3A2 A2left2"/>
    </vehicle>
    <vehicle id="OD351_NV.2" type="NV" depart="64.20" departSpeed="10">
        <route edges="right2E2 E2E1 E1right1"/>
    </vehicle>
    <vehicle id="OD59_NV.0" type="NV" depart="64.34" departSpeed="10">
        <route edges="top4E4 E4D4 D4top3"/>
    </vehicle>
    <vehicle id="OD101_NV.0" type="NV" depart="64.59" departSpeed="10">
        <route edges="right1E1 E1D1 D1C1 C1B1 B1A1 A1left1"/>
    </vehicle>
    <vehicle id="OD130_NV.1" type="NV" depart="64.81" departSpeed="10">
        <route edges="right4E4 E4E3 E3right3"/>
    </vehicle>
    <vehicle id="OD293_RV.0" type="RV" depart="65.56" departSpeed="10">
        <route edges="bottom0A0 A0A1 A1A2 A2A3 A3A4 A4top0"/>
    </vehicle>
    <vehicle id="OD341_NV.0" type="NV" depart="66.43" departSpeed="10">
        <route edges="top0A4 A4B4 B4C4 C4C3 C3D3 D3D2 D2D1 D1E1 E1E0 E0right0"/>
    </vehicle>
    <vehicle id="OD183_NV.1" type="NV" depart="66.52" departSpeed="10">
        <route edges="right0E0 E0E1 E1D1 D1D2 D2C2 C2B2 B2B3 B3A3 A3A4 A4left4"/>
    </vehicle>
    <vehicle id="OD80_RV.0" type="RV" depart="66.67" departSpeed="10">
        <route edges="left1A1 A1A0 A0B0 B0C0 C0bottom2"/>
    </vehicle>
    <vehicle id="OD336_NV.1" type="NV" depart="66.80" departSpeed="10">
        <route edges="top0A4 A4left4"/>
    </vehicle>
    <vehicle id="OD193_NV.0" type="NV" depart="66.89" departSpeed="10">
        <route edges="top3D4 D4E4 E4top4"/>
    </vehicle>