<?xml version="1.0" encoding="UTF-8"?>

<!-- generated on 2024-01-22 19:08:44 by Eclipse SUMO netedit Version 1.18.0
<configuration xmlns:xsi="http://www.w3.org/2001/XMLSchema-instance" xsi:noNamespaceSchemaLocation="http://sumo.dlr.de/xsd/neteditConfiguration.xsd">

    <input>
        <sumo-net-file value="E:\ADMM\test_code\test.net.xml"/>
    </input>

    <output>
        <output-file value="E:\ADMM\test_code\test.net.xml"/>
    </output>

    <processing>
        <geometry.min-radius.fix.railways value="false"/>
        <geometry.max-grade.fix value="false"/>
        <offset.disable-normalization value="true"/>
        <lefthand value="0"/>
    </processing>

    <junctions>
        <no-turnarounds value="true"/>
        <junctions.corner-detail value="5"/>
        <junctions.limit-turn-speed value="5.50"/>
        <rectangular-lane-cut value="0"/>
    </junctions>

    <pedestrian>
        <walkingareas value="0"/>
    </pedestrian>

</configuration>
-->

<net version="1.16" junctionCornerDetail="5" limitTurnSpeed="5.50" xmlns:xsi="http://www.w3.org/2001/XMLSchema-instance" xsi:noNamespaceSchemaLocation="http://sumo.dlr.de/xsd/net_file.xsd">

    <location netOffset="0.00,0.00" convBoundary="-300.00,-300.00,300.00,300.00" origBoundary="-10000000000.00,-10000000000.00,10000000000.00,10000000000.00" projParameter="!"/>

    <edge id=":0_0" function="internal">
        <lane id=":0_0_0" index="0" speed="6.51" length="9.03" shape="-8.00,13.60 -8.35,11.15 -9.40,9.40 -11.15,8.35 -13.60,8.00"/>
    </edge>
    <edge id=":0_1" function="internal">
        <lane id=":0_1_0" index="0" speed="13.89" length="27.20" shape="-4.80,13.60 -4.80,-13.60"/>
    </edge>
    <edge id=":0_2" function="internal">
        <lane id=":0_2_0" index="0" speed="10.36" length="24.51" shape="-1.60,13.60 -0.65,6.95 2.20,2.20 6.95,-0.65 13.60,-1.60"/>
    </edge>
    <edge id=":0_3" function="internal">
        <lane id=":0_3_0" index="0" speed="6.51" length="9.03" shape="13.60,8.00 11.15,8.35 9.40,9.40 8.35,11.15 8.00,13.60"/>
    </edge>
    <edge id=":0_4" function="internal">
        <lane id=":0_4_0" index="0" speed="13.89" length="27.20" shape="13.60,4.80 -13.60,4.80"/>
    </edge>
    <edge id=":0_5" function="internal">
        <lane id=":0_5_0" index="0" speed="10.36" length="24.51" shape="13.60,1.60 6.95,0.65 2.20,-2.20 -0.65,-6.95 -1.60,-13.60"/>
    </edge>
    <edge id=":0_6" function="internal">
        <lane id=":0_6_0" index="0" speed="6.51" length="9.03" shape="8.00,-13.60 8.35,-11.15 9.40,-9.40 11.15,-8.35 13.60,-8.00"/>
    </edge>
    <edge id=":0_7" function="internal">
        <lane id=":0_7_0" index="0" speed="13.89" length="27.20" shape="4.80,-13.60 4.80,13.60"/>
    </edge>
    <edge id=":0_8" function="internal">
        <lane id=":0_8_0" index="0" speed="10.36" length="24.51" shape="1.60,-13.60 0.65,-6.95 -2.20,-2.20 -6.95,0.65 -13.60,1.60"/>
    </edge>
    <edge id=":0_9" function="internal">
        <lane id=":0_9_0" index="0" speed="6.51" length="9.03" shape="-13.60,-8.00 -11.15,-8.35 -9.40,-9.40 -8.35,-11.15 -8.00,-13.60"/>
    </edge>
    <edge id=":0_10" function="internal">
        <lane id=":0_10_0" index="0" speed="13.89" length="27.20" shape="-13.60,-4.80 13.60,-4.80"/>
    </edge>
    <edge id=":0_11" function="internal">
        <lane id=":0_11_0" index="0" speed="10.36" length="24.51" shape="-13.60,-1.60 -6.95,-0.65 -2.20,2.20 0.65,6.95 1.60,13.60"/>
    </edge>

    <edge id="-1" from="0" to="1" priority="-1">
        <lane id="-1_0" index="0" speed="13.89" length="286.40" shape="-13.60,8.00 -300.00,8.00"/>
        <lane id="-1_1" index="1" speed="13.89" length="286.40" shape="-13.60,4.80 -300.00,4.80"/>
        <lane id="-1_2" index="2" speed="13.89" length="286.40" shape="-13.60,1.60 -300.00,1.60"/>
    </edge>
    <edge id="-2" from="2" to="0" priority="-1">
        <lane id="-2_0" index="0" speed="13.89" length="286.40" shape="300.00,8.00 13.60,8.00"/>
        <lane id="-2_1" index="1" speed="13.89" length="286.40" shape="300.00,4.80 13.60,4.80"/>
        <lane id="-2_2" index="2" speed="13.89" length="286.40" shape="300.00,1.60 13.60,1.60"/>
    </edge>
    <edge id="-3" from="0" to="3" priority="-1">
        <lane id="-3_0" index="0" speed="13.89" length="286.40" shape="8.00,13.60 8.00,300.00"/>
        <lane id="-3_1" index="1" speed="13.89" length="286.40" shape="4.80,13.60 4.80,300.00"/>
        <lane id="-3_2" index="2" speed="13.89" length="286.40" shape="1.60,13.60 1.60,300.00"/>
    </edge>
    <edge id="-4" from="4" to="0" priority="-1">
        <lane id="-4_0" index="0" speed="13.89" length="286.40" shape="8.00,-300.00 8.00,-13.60"/>
        <lane id="-4_1" index="1" speed="13.89" length="286.40" shape="4.80,-300.00 4.80,-13.60"/>
        <lane id="-4_2" index="2" speed="13.89" length="286.40" shape="1.60,-300.00 1.60,-13.60"/>
    </edge>
    <edge id="1" from="1" to="0" priority="-1">
        <lane id="1_0" index="0" speed="13.89" length="286.40" shape="-300.00,-8.00 -13.60,-8.00"/>
        <lane id="1_1" index="1" speed="13.89" length="286.40" shape="-300.00,-4.80 -13.60,-4.80"/>
        <lane id="1_2" index="2" speed="13.89" length="286.40" shape="-300.00,-1.60 -13.60,-1.60"/>
    </edge>
    <edge id="2" from="0" to="2" priority="-1">
        <lane id="2_0" index="0" speed="13.89" length="286.40" shape="13.60,-8.00 300.00,-8.00"/>
        <lane id="2_1" index="1" speed="13.89" length="286.40" shape="13.60,-4.80 300.00,-4.80"/>
        <lane id="2_2" index="2" speed="13.89" length="286.40" shape="13.60,-1.60 300.00,-1.60"/>
    </edge>
    <edge id="3" from="3" to="0" priority="-1">
        <lane id="3_0" index="0" speed="13.89" length="286.40" shape="-8.00,300.00 -8.00,13.60"/>
        <lane id="3_1" index="1" speed="13.89" length="286.40" shape="-4.80,300.00 -4.80,13.60"/>
        <lane id="3_2" index="2" speed="13.89" length="286.40" shape="-1.60,300.00 -1.60,13.60"/>
    </edge>
    <edge id="4" from="0" to="4" priority="-1">
        <lane id="4_0" index="0" speed="13.89" length="286.40" shape="-8.00,-13.60 -8.00,-300.00"/>
        <lane id="4_1" index="1" speed="13.89" length="286.40" shape="-4.80,-13.60 -4.80,-300.00"/>
        <lane id="4_2" index="2" speed="13.89" length="286.40" shape="-1.60,-13.60 -1.60,-300.00"/>
    </edge>

    <tlLogic id="0" type="static" programID="2" offset="0">
        <phase duration="22" state="GrrGrGGrrGrG"/>
        <phase duration="3"  state="GrrGrYGrrGrY"/>
        <phase duration="22" state="GrrGGrGrrGGr"/>
        <phase duration="3"  state="GrrGYrGrrGYr"/>
        <phase duration="22" state="GrGGrrGrGGrr"/>
        <phase duration="3"  state="GrYGrrGrYGrr"/>
        <phase duration="22" state="GGrGrrGGrGrr"/>
        <phase duration="3"  state="GYrGrrGYrGrr"/>
    </tlLogic>

    <junction id="0" type="traffic_light" x="0.00" y="0.00" incLanes="3_0 3_1 3_2 -2_0 -2_1 -2_2 -4_0 -4_1 -4_2 1_0 1_1 1_2" intLanes=":0_0_0 :0_1_0 :0_2_0 :0_3_0 :0_4_0 :0_5_0 :0_6_0 :0_7_0 :0_8_0 :0_9_0 :0_10_0 :0_11_0" shape="-9.60,13.60 9.60,13.60 10.04,11.38 10.60,10.60 11.38,10.04 12.38,9.71 13.60,9.60 13.60,-9.60 11.38,-10.04 10.60,-10.60 10.04,-11.38 9.71,-12.38 9.60,-13.60 -9.60,-13.60 -10.04,-11.38 -10.60,-10.60 -11.38,-10.04 -12.38,-9.71 -13.60,-9.60 -13.60,9.60 -11.38,10.04 -10.60,10.60 -10.04,11.38 -9.71,12.38">
        <request index="0"  response="000000000000" foes="000000000000" cont="0"/>
        <request index="1"  response="000000000000" foes="110100010000" cont="0"/>
        <request index="2"  response="000010000000" foes="100010110000" cont="0"/>
        <request index="3"  response="000000000000" foes="000000000000" cont="0"/>
        <request index="4"  response="000010000110" foes="100010000110" cont="0"/>
        <request index="5"  response="010110000100" foes="010110000100" cont="0"/>
        <request index="6"  response="000000000000" foes="000000000000" cont="0"/>
        <request index="7"  response="000000000000" foes="010000110100" cont="0"/>
        <request index="8"  response="000000000010" foes="110000100010" cont="0"/>
        <request index="9"  response="000000000000" foes="000000000000" cont="0"/>
        <request index="10" response="000110000010" foes="000110100010" cont="0"/>
        <request index="11" response="000100010110" foes="000100010110" cont="0"/>
    </junction>
    <junction id="1" type="dead_end" x="-300.00" y="0.00" incLanes="-1_0 -1_1 -1_2" intLanes="" shape="-300.00,0.00 -300.00,9.60 -300.00,0.00"/>
    <junction id="2" type="dead_end" x="300.00" y="0.00" incLanes="2_0 2_1 2_2" intLanes="" shape="300.00,0.00 300.00,-9.60 300.00,0.00"/>
    <junction id="3" type="dead_end" x="0.00" y="300.00" incLanes="-3_0 -3_1 -3_2" intLanes="" shape="0.00,300.00 9.60,300.00 0.00,300.00"/>
    <junction id="4" type="dead_end" x="0.00" y="-300.00" incLanes="4_0 4_1 4_2" intLanes="" shape="0.00,-300.00 -9.60,-300.00 0.00,-300.00"/>

    <connection from="-2" to="-3" fromLane="0" toLane="0" via=":0_3_0" tl="0" linkIndex="3" dir="r" state="O"/>
    <connection from="-2" to="-1" fromLane="1" toLane="1" via=":0_4_0" tl="0" linkIndex="4" dir="s" state="o"/>
    <connection from="-2" to="4" fromLane="2" toLane="2" via=":0_5_0" tl="0" linkIndex="5" dir="l" state="o"/>
    <connection from="-4" to="2" fromLane="0" toLane="0" via=":0_6_0" tl="0" linkIndex="6" dir="r" state="O"/>
    <connection from="-4" to="-3" fromLane="1" toLane="1" via=":0_7_0" tl="0" linkIndex="7" dir="s" state="O"/>
    <connection from="-4" to="-1" fromLane="2" toLane="2" via=":0_8_0" tl="0" linkIndex="8" dir="l" state="o"/>
    <connection from="1" to="4" fromLane="0" toLane="0" via=":0_9_0" tl="0" linkIndex="9" dir="r" state="O"/>
    <connection from="1" to="2" fromLane="1" toLane="1" via=":0_10_0" tl="0" linkIndex="10" dir="s" state="o"/>
    <connection from="1" to="-3" fromLane="2" toLane="2" via=":0_11_0" tl="0" linkIndex="11" dir="l" state="o"/>
    <connection from="3" to="-1" fromLane="0" toLane="0" via=":0_0_0" tl="0" linkIndex="0" dir="r" state="O"/>
    <connection from="3" to="4" fromLane="1" toLane="1" via=":0_1_0" tl="0" linkIndex="1" dir="s" state="O"/>
    <connection from="3" to="2" fromLane="2" toLane="2" via=":0_2_0" tl="0" linkIndex="2" dir="l" state="o"/>

    <connection from=":0_0" to="-1" fromLane="0" toLane="0" dir="r" state="M"/>
    <connection from=":0_1" to="4" fromLane="0" toLane="1" dir="s" state="M"/>
    <connection from=":0_2" to="2" fromLane="0" toLane="2" dir="l" state="M"/>
    <connection from=":0_3" to="-3" fromLane="0" toLane="0" dir="r" state="M"/>
    <connection from=":0_4" to="-1" fromLane="0" toLane="1" dir="s" state="M"/>
    <connection from=":0_5" to="4" fromLane="0" toLane="2" dir="l" state="M"/>
    <connection from=":0_6" to="2" fromLane="0" toLane="0" dir="r" state="M"/>
    <connection from=":0_7" to="-3" fromLane="0" toLane="1" dir="s" state="M"/>
    <connection from=":0_8" to="-1" fromLane="0" toLane="2" dir="l" state="M"/>
    <connection from=":0_9" to="4" fromLane="0" toLane="0" dir="r" state="M"/>
    <connection from=":0_10" to="2" fromLane="0" toLane="1" dir="s" state="M"/>
    <connection from=":0_11" to="-3" fromLane="0" toLane="2" dir="l" state="M"/>

</net>
