<?xml version="1.0" encoding="UTF-8"?>

<!-- generated on 2024-09-03 10:32:28 by Eclipse SUMO duarouter Version 1.18.0
<configuration xmlns:xsi="http://www.w3.org/2001/XMLSchema-instance" xsi:noNamespaceSchemaLocation="http://sumo.dlr.de/xsd/duarouterConfiguration.xsd">

    <input>
        <net-file value="1x1.net.xml"/>
        <route-files value="trip.trip.xml"/>
    </input>

    <output>
        <output-file value="Demand_20.rou.xml"/>
    </output>

    <processing>
        <randomize-flows value="true"/>
        <weights.random-factor value="1.5"/>
    </processing>

    <defaults>
        <departspeed value="10"/>
    </defaults>

    <random_number>
        <seed value="30"/>
    </random_number>

</configuration>
-->

<routes xmlns:xsi="http://www.w3.org/2001/XMLSchema-instance" xsi:noNamespaceSchemaLocation="http://sumo.dlr.de/xsd/routes_file.xsd">
    <vType id="RV" length="5.00" minGap="2.00" maxSpeed="60.00" speedFactor="normc(1.00,0.00)" guiShape="passenger" color="red" accel="3" decel="5" sigma="0.5" tau="1.0"/>
    <vehicle id="OD2_RV.0" type="RV" depart="1.27" departSpeed="10">
        <route edges="1 4"/>
    </vehicle>
    <vType id="NV" length="5.00" minGap="2.00" maxSpeed="60.00" speedFactor="normc(1.00,0.00)" guiShape="passenger" color="green" accel="3" decel="5" sigma="0.5" tau="1.0"/>
    <vehicle id="OD11_NV.0" type="NV" depart="2.01" departSpeed="10">
        <route edges="-4 -3"/>
    </vehicle>
    <vehicle id="OD6_NV.0" type="NV" depart="5.30" departSpeed="10">
        <route edges="3 -1"/>
    </vehicle>
    <vehicle id="OD8_NV.0" type="NV" depart="5.62" departSpeed="10">
        <route edges="3 4"/>
    </vehicle>
    <vehicle id="OD5_NV.0" type="NV" depart="6.55" departSpeed="10">
        <route edges="-2 4"/>
    </vehicle>
    <vehicle id="OD0_NV.0" type="NV" depart="7.64" departSpeed="10">
        <route edges="1 2"/>
    </vehicle>
    <vehicle id="OD4_RV.0" type="RV" depart="9.07" departSpeed="10">
        <route edges="-2 -3"/>
    </vehicle>
    <vehicle id="OD2_NV.0" type="NV" depart="10.77" departSpeed="10">
        <route edges="1 4"/>
    </vehicle>
    <vehicle id="OD8_NV.1" type="NV" depart="14.95" departSpeed="10">
        <route edges="3 4"/>
    </vehicle>
    <vehicle id="OD3_NV.0" type="NV" depart="15.37" departSpeed="10">
        <route edges="-2 -1"/>
    </vehicle>
    <vehicle id="OD0_NV.1" type="NV" depart="15.64" departSpeed="10">
        <route edges="1 2"/>
    </vehicle>
    <vehicle id="OD10_NV.0" type="NV" depart="16.30" departSpeed="10">
        <route edges="-4 2"/>
    </vehicle>
    <vehicle id="OD9_NV.0" type="NV" depart="19.62" departSpeed="10">
        <route edges="-4 -1"/>
    </vehicle>
    <vehicle id="OD6_RV.0" type="RV" depart="19.81" departSpeed="10">
        <route edges="3 -1"/>
    </vehicle>
    <vehicle id="OD11_NV.1" type="NV" depart="19.86" departSpeed="10">
        <route edges="-4 -3"/>
    </vehicle>
    <vehicle id="OD4_NV.0" type="NV" depart="20.15" departSpeed="10">
        <route edges="-2 -3"/>
    </vehicle>
    <vehicle id="OD4_NV.1" type="NV" depart="20.72" departSpeed="10">
        <route edges="-2 -3"/>
    </vehicle>
    <vehicle id="OD1_RV.0" type="RV" depart="21.57" departSpeed="10">
        <route edges="1 -3"/>
    </vehicle>
    <vehicle id="OD4_NV.2" type="NV" depart="21.61" departSpeed="10">
        <route edges="-2 -3"/>
    </vehicle>
    <vehicle id="OD4_NV.3" type="NV" depart="23.45" departSpeed="10">
        <route edges="-2 -3"/>
    </vehicle>
    <vehicle id="OD9_NV.1" type="NV" depart="26.53" departSpeed="10">
        <route edges="-4 -1"/>
    </vehicle>
    <vehicle id="OD11_NV.2" type="NV" depart="27.87" departSpeed="10">
        <route edges="-4 -3"/>
    </vehicle>
    <vehicle id="OD8_NV.2" type="NV" depart="28.97" departSpeed="10">
        <route edges="3 4"/>
    </vehicle>
    <vehicle id="OD5_NV.1" type="NV" depart="29.93" departSpeed="10">
        <route edges="-2 4"/>
    </vehicle>
    <vehicle id="OD9_RV.0" type="RV" depart="32.29" departSpeed="10">
        <route edges="-4 -1"/>
    </vehicle>
    <vehicle id="OD11_NV.3" type="NV" depart="33.30" departSpeed="10">
        <route edges="-4 -3"/>
    </vehicle>
    <vehicle id="OD10_NV.1" type="NV" depart="33.95" departSpeed="10">
        <route edges="-4 2"/>
    </vehicle>
    <vehicle id="OD3_NV.1" type="NV" depart="35.36" departSpeed="10">
        <route edges="-2 -1"/>
    </vehicle>
    <vehicle id="OD0_NV.2" type="NV" depart="36.49" departSpeed="10">
        <route edges="1 2"/>
    </vehicle>
    <vehicle id="OD6_NV.1" type="NV" depart="37.11" departSpeed="10">
        <route edges="3 -1"/>
    </vehicle>
    <vehicle id="OD2_NV.1" type="NV" depart="39.32" departSpeed="10">
        <route edges="1 4"/>
    </vehicle>
    <vehicle id="OD4_NV.4" type="NV" depart="42.09" departSpeed="10">
        <route edges="-2 -3"/>
    </vehicle>
    <vehicle id="OD4_NV.5" type="NV" depart="42.79" departSpeed="10">
        <route edges="-2 -3"/>
    </vehicle>
    <vehicle id="OD2_NV.2" type="NV" depart="42.94" departSpeed="10">
        <route edges="1 4"/>
    </vehicle>
    <vehicle id="OD7_NV.0" type="NV" depart="43.43" departSpeed="10">
        <route edges="3 2"/>
    </vehicle>
    <vehicle id="OD9_NV.2" type="NV" depart="46.24" departSpeed="10">
        <route edges="-4 -1"/>
    </vehicle>
    <vehicle id="OD9_NV.3" type="NV" depart="46.95" departSpeed="10">
        <route edges="-4 -1"/>
    </vehicle>
    <vehicle id="OD7_NV.1" type="NV" depart="48.07" departSpeed="10">
        <route edges="3 2"/>
    </vehicle>
    <vehicle id="OD10_NV.2" type="NV" depart="50.66" departSpeed="10">
        <route edges="-4 2"/>
    </vehicle>
    <vehicle id="OD3_NV.2" type="NV" depart="52.06" departSpeed="10">
        <route edges="-2 -1"/>
    </vehicle>
    <vehicle id="OD9_NV.4" type="NV" depart="53.12" departSpeed="10">
        <route edges="-4 -1"/>
    </vehicle>
    <vehicle id="OD4_RV.1" type="RV" depart="53.62" departSpeed="10">
        <route edges="-2 -3"/>
    </vehicle>
    <vehicle id="OD8_RV.0" type="RV" depart="54.19" departSpeed="10">
        <route edges="3 4"/>
    </vehicle>
    <vehicle id="OD0_NV.3" type="NV" depart="55.46" departSpeed="10">
        <route edges="1 2"/>
    </vehicle>
    <vehicle id="OD4_RV.2" type="RV" depart="55.58" departSpeed="10">
        <route edges="-2 -3"/>
    </vehicle>
    <vehicle id="OD6_NV.2" type="NV" depart="55.68" departSpeed="10">
        <route edges="3 -1"/>
    </vehicle>
    <vehicle id="OD8_RV.1" type="RV" depart="56.07" departSpeed="10">
        <route edges="3 4"/>
    </vehicle>
    <vehicle id="OD1_NV.0" type="NV" depart="58.03" departSpeed="10">
        <route edges="1 -3"/>
    </vehicle>
    <vehicle id="OD7_NV.2" type="NV" depart="58.99" departSpeed="10">
        <route edges="3 2"/>
    </vehicle>
    <vehicle id="OD4_RV.3" type="RV" depart="59.03" departSpeed="10">
        <route edges="-2 -3"/>
    </vehicle>
    <vehicle id="OD7_NV.3" type="NV" depart="59.41" departSpeed="10">
        <route edges="3 2"/>
    </vehicle>
    <vehicle id="OD10_NV.3" type="NV" depart="63.21" departSpeed="10">
        <route edges="-4 2"/>
    </vehicle>
    <vehicle id="OD9_NV.5" type="NV" depart="63.79" departSpeed="10">
        <route edges="-4 -1"/>
    </vehicle>
    <vehicle id="OD5_NV.2" type="NV" depart="64.00" departSpeed="10">
        <route edges="-2 4"/>
    </vehicle>
    <vehicle id="OD6_NV.3" type="NV" depart="64.34" departSpeed="10">
        <route edges="3 -1"/>
    </vehicle>
    <vehicle id="OD10_NV.4" type="NV" depart="64.59" departSpeed="10">
        <route edges="-4 2"/>
    </vehicle>
    <vehicle id="OD8_NV.3" type="NV" depart="66.67" departSpeed="10">
        <route edges="3 4"/>
    </vehicle>
    <vehicle id="OD3_NV.3" type="NV" depart="67.09" departSpeed="10">
        <route edges="-2 -1"/>
    </vehicle>
    <vehicle id="OD4_NV.6" type="NV" depart="67.14" departSpeed="10">
        <route edges="-2 -3"/>
    </vehicle>
    <vehicle id="OD5_NV.3" type="NV" depart="69.86" departSpeed="10">
        <route edges="-2 4"/>
    </vehicle>
    <vehicle id="OD1_RV.1" type="RV" depart="70.16" departSpeed="10">
        <route edges="1 -3"/>
    </vehicle>
    <vehicle id="OD6_RV.1" type="RV" depart="70.26" departSpeed="10">
        <route edges="3 -1"/>
    </vehicle>
    <vehicle id="OD3_NV.4" type="NV" depart="72.61" departSpeed="10">
        <route edges="-2 -1"/>
    </vehicle>
    <vehicle id="OD0_NV.4" type="NV" depart="73.65" departSpeed="10">
        <route edges="1 2"/>
    </vehicle>
    <vehicle id="OD5_NV.4" type="NV" depart="75.59" departSpeed="10">
        <route edges="-2 4"/>
    </vehicle>
    <vehicle id="OD10_NV.5" type="NV" depart="76.16" departSpeed="10">
        <route edges="-4 2"/>
    </vehicle>
    <vehicle id="OD4_NV.7" type="NV" depart="76.33" departSpeed="10">
        <route edges="-2 -3"/>
    </vehicle>
    <vehicle id="OD1_NV.1" type="NV" depart="76.90" departSpeed="10">
        <route edges="1 -3"/>
    </vehicle>
    <vehicle id="OD6_RV.2" type="RV" depart="77.64" departSpeed="10">
        <route edges="3 -1"/>
    </vehicle>
    <vehicle id="OD4_NV.8" type="NV" depart="81.30" departSpeed="10">
        <route edges="-2 -3"/>
    </vehicle>
    <vehicle id="OD6_NV.4" type="NV" depart="81.75" departSpeed="10">
        <route edges="3 -1"/>
    </vehicle>
    <vehicle id="OD11_NV.4" type="NV" depart="82.23" departSpeed="10">
        <route edges="-4 -3"/>
    </vehicle>
    <vehicle id="OD3_NV.5" type="NV" depart="82.60" departSpeed="10">
        <route edges="-2 -1"/>
    </vehicle>
    <vehicle id="OD2_NV.3" type="NV" depart="82.61" departSpeed="10">
        <route edges="1 4"/>
    </vehicle>
    <vehicle id="OD4_NV.9" type="NV" depart="83.56" departSpeed="10">
        <route edges="-2 -3"/>
    </vehicle>
    <vehicle id="OD3_NV.6" type="NV" depart="85.71" departSpeed="10">
        <route edges="-2 -1"/>
    </vehicle>
    <vehicle id="OD4_NV.10" type="NV" depart="86.07" departSpeed="10">
        <route edges="-2 -3"/>
    </vehicle>
    <vehicle id="OD11_NV.5" type="NV" depart="86.61" departSpeed="10">
        <route edges="-4 -3"/>
    </vehicle>
    <vehicle id="OD3_NV.7" type="NV" depart="87.57" departSpeed="10">
        <route edges="-2 -1"/>
    </vehicle>
    <vehicle id="OD0_NV.5" type="NV" depart="87.66" departSpeed="10">
        <route edges="1 2"/>
    </vehicle>
    <vehicle id="OD8_NV.4" type="NV" depart="87.97" departSpeed="10">
        <route edges="3 4"/>
    </vehicle>
    <vehicle id="OD11_NV.6" type="NV" depart="88.00" departSpeed="10">
        <route edges="-4 -3"/>
    </vehicle>
    <vehicle id="OD1_RV.2" type="RV" depart="89.15" departSpeed="10">
        <route edges="1 -3"/>
    </vehicle>
    <vehicle id="OD1_RV.3" type="RV" depart="89.90" departSpeed="10">
        <route edges="1 -3"/>
    </vehicle>
    <vehicle id="OD10_NV.6" type="NV" depart="90.67" departSpeed="10">
        <route edges="-4 2"/>
    </vehicle>
    <vehicle id="OD10_NV.7" type="NV" depart="91.42" departSpeed="10">
        <route edges="-4 2"/>
    </vehicle>
    <vehicle id="OD2_NV.4" type="NV" depart="92.61" departSpeed="10">
        <route edges="1 4"/>
    </vehicle>
    <vehicle id="OD4_NV.11" type="NV" depart="94.38" departSpeed="10">
        <route edges="-2 -3"/>
    </vehicle>
    <vehicle id="OD7_NV.4" type="NV" depart="95.96" departSpeed="10">
        <route edges="3 2"/>
    </vehicle>
    <vehicle id="OD11_NV.7" type="NV" depart="96.64" departSpeed="10">
        <route edges="-4 -3"/>
    </vehicle>
    <vehicle id="OD5_RV.0" type="RV" depart="98.50" departSpeed="10">
        <route edges="-2 4"/>
    </vehicle>
    <vehicle id="OD8_RV.2" type="RV" depart="100.43" departSpeed="10">
        <route edges="3 4"/>
    </vehicle>
    <vehicle id="OD10_NV.8" type="NV" depart="103.09" departSpeed="10">
        <route edges="-4 2"/>
    </vehicle>
    <vehicle id="OD2_NV.5" type="NV" depart="103.73" departSpeed="10">
        <route edges="1 4"/>
    </vehicle>
    <vehicle id="OD3_NV.8" type="NV" depart="108.79" departSpeed="10">
        <route edges="-2 -1"/>
    </vehicle>
    <vehicle id="OD3_NV.9" type="NV" depart="109.52" departSpeed="10">
        <route edges="-2 -1"/>
    </vehicle>
    <vehicle id="OD11_NV.8" type="NV" depart="110.77" departSpeed="10">
        <route edges="-4 -3"/>
    </vehicle>
    <vehicle id="OD3_NV.10" type="NV" depart="113.17" departSpeed="10">
        <route edges="-2 -1"/>
    </vehicle>
    <vehicle id="OD2_NV.6" type="NV" depart="113.52" departSpeed="10">
        <route edges="1 4"/>
    </vehicle>
    <vehicle id="OD10_NV.9" type="NV" depart="113.74" departSpeed="10">
        <route edges="-4 2"/>
    </vehicle>
    <vehicle id="OD11_NV.9" type="NV" depart="114.32" departSpeed="10">
        <route edges="-4 -3"/>
    </vehicle>
    <vehicle id="OD11_NV.10" type="NV" depart="115.54" departSpeed="10">
        <route edges="-4 -3"/>
    </vehicle>
    <vehicle id="OD1_RV.4" type="RV" depart="115.94" departSpeed="10">
        <route edges="1 -3"/>
    </vehicle>
    <vehicle id="OD3_NV.11" type="NV" depart="119.29" departSpeed="10">
        <route edges="-2 -1"/>
    </vehicle>
    <vehicle id="OD0_NV.6" type="NV" depart="119.51" departSpeed="10">
        <route edges="1 2"/>
    </vehicle>
    <vehicle id="OD3_RV.0" type="RV" depart="121.70" departSpeed="10">
        <route edges="-2 -1"/>
    </vehicle>
    <vehicle id="OD7_NV.5" type="NV" depart="121.86" departSpeed="10">
        <route edges="3 2"/>
    </vehicle>
    <vehicle id="OD3_NV.12" type="NV" depart="122.68" departSpeed="10">
        <route edges="-2 -1"/>
    </vehicle>
    <vehicle id="OD11_NV.11" type="NV" depart="123.04" departSpeed="10">
        <route edges="-4 -3"/>
    </vehicle>
    <vehicle id="OD9_NV.6" type="NV" depart="124.01" departSpeed="10">
        <route edges="-4 -1"/>
    </vehicle>
    <vehicle id="OD3_RV.1" type="RV" depart="126.51" departSpeed="10">
        <route edges="-2 -1"/>
    </vehicle>
    <vehicle id="OD9_NV.7" type="NV" depart="127.23" departSpeed="10">
        <route edges="-4 -1"/>
    </vehicle>
    <vehicle id="OD11_NV.12" type="NV" depart="129.70" departSpeed="10">
        <route edges="-4 -3"/>
    </vehicle>
    <vehicle id="OD2_RV.1" type="RV" depart="131.30" departSpeed="10">
        <route edges="1 4"/>
    </vehicle>
    <vehicle id="OD0_NV.7" type="NV" depart="132.73" departSpeed="10">
        <route edges="1 2"/>
    </vehicle>
    <vehicle id="OD9_NV.8" type="NV" depart="132.91" departSpeed="10">
        <route edges="-4 -1"/>
    </vehicle>
    <vehicle id="OD0_NV.8" type="NV" depart="135.31" departSpeed="10">
        <route edges="1 2"/>
    </vehicle>
    <vehicle id="OD1_NV.2" type="NV" depart="135.97" departSpeed="10">
        <route edges="1 -3"/>
    </vehicle>
    <vehicle id="OD4_NV.12" type="NV" depart="137.72" departSpeed="10">
        <route edges="-2 -3"/>
    </vehicle>
    <vehicle id="OD7_RV.0" type="RV" depart="139.39" departSpeed="10">
        <route edges="3 2"/>
    </vehicle>
    <vehicle id="OD2_NV.7" type="NV" depart="139.70" departSpeed="10">
        <route edges="1 4"/>
    </vehicle>
    <vehicle id="OD8_NV.5" type="NV" depart="140.75" departSpeed="10">
        <route edges="3 4"/>
    </vehicle>
    <vehicle id="OD10_NV.10" type="NV" depart="141.70" departSpeed="10">
        <route edges="-4 2"/>
    </vehicle>
    <vehicle id="OD8_NV.6" type="NV" depart="141.98" departSpeed="10">
        <route edges="3 4"/>
    </vehicle>
    <vehicle id="OD11_NV.13" type="NV" depart="142.61" departSpeed="10">
        <route edges="-4 -3"/>
    </vehicle>
    <vehicle id="OD8_NV.7" type="NV" depart="143.47" departSpeed="10">
        <route edges="3 4"/>
    </vehicle>
    <vehicle id="OD0_NV.9" type="NV" depart="144.80" departSpeed="10">
        <route edges="1 2"/>
    </vehicle>
    <vehicle id="OD6_NV.5" type="NV" depart="145.45" departSpeed="10">
        <route edges="3 -1"/>
    </vehicle>
    <vehicle id="OD0_NV.10" type="NV" depart="148.10" departSpeed="10">
        <route edges="1 2"/>
    </vehicle>
    <vehicle id="OD11_NV.14" type="NV" depart="148.15" departSpeed="10">
        <route edges="-4 -3"/>
    </vehicle>
    <vehicle id="OD3_NV.13" type="NV" depart="150.05" departSpeed="10">
        <route edges="-2 -1"/>
    </vehicle>
    <vehicle id="OD8_NV.8" type="NV" depart="150.21" departSpeed="10">
        <route edges="3 4"/>
    </vehicle>
    <vehicle id="OD7_NV.6" type="NV" depart="151.06" departSpeed="10">
        <route edges="3 2"/>
    </vehicle>
    <vehicle id="OD2_RV.2" type="RV" depart="151.24" departSpeed="10">
        <route edges="1 4"/>
    </vehicle>
    <vehicle id="OD8_NV.9" type="NV" depart="152.51" departSpeed="10">
        <route edges="3 4"/>
    </vehicle>
    <vehicle id="OD4_RV.4" type="RV" depart="158.61" departSpeed="10">
        <route edges="-2 -3"/>
    </vehicle>
    <vehicle id="OD3_NV.14" type="NV" depart="159.79" departSpeed="10">
        <route edges="-2 -1"/>
    </vehicle>
    <vehicle id="OD7_NV.7" type="NV" depart="160.06" departSpeed="10">
        <route edges="3 2"/>
    </vehicle>
    <vehicle id="OD9_NV.9" type="NV" depart="161.05" departSpeed="10">
        <route edges="-4 -1"/>
    </vehicle>
    <vehicle id="OD8_NV.10" type="NV" depart="161.49" departSpeed="10">
        <route edges="3 4"/>
    </vehicle>
    <vehicle id="OD6_NV.6" type="NV" depart="161.95" departSpeed="10">
        <route edges="3 -1"/>
    </vehicle>
    <vehicle id="OD11_RV.0" type="RV" depart="162.34" departSpeed="10">
        <route edges="-4 -3"/>
    </vehicle>
    <vehicle id="OD11_NV.15" type="NV" depart="162.62" departSpeed="10">
        <route edges="-4 -3"/>
    </vehicle>
    <vehicle id="OD9_NV.10" type="NV" depart="162.75" departSpeed="10">
        <route edges="-4 -1"/>
    </vehicle>
    <vehicle id="OD5_NV.5" type="NV" depart="163.67" departSpeed="10">
        <route edges="-2 4"/>
    </vehicle>
    <vehicle id="OD5_NV.6" type="NV" depart="165.62" departSpeed="10">
        <route edges="-2 4"/>
    </vehicle>
    <vehicle id="OD11_NV.16" type="NV" depart="166.48" departSpeed="10">
        <route edges="-4 -3"/>
    </vehicle>
    <vehicle id="OD8_NV.11" type="NV" depart="166.93" departSpeed="10">
        <route edges="3 4"/>
    </vehicle>
    <vehicle id="OD7_NV.8" type="NV" depart="171.10" departSpeed="10">
        <route edges="3 2"/>
    </vehicle>
    <vehicle id="OD1_NV.3" type="NV" depart="171.32" departSpeed="10">
        <route edges="1 -3"/>
    </vehicle>
    <vehicle id="OD1_NV.4" type="NV" depart="172.48" departSpeed="10">
        <route edges="1 -3"/>
    </vehicle>
    <vehicle id="OD8_NV.12" type="NV" depart="173.04" departSpeed="10">
        <route edges="3 4"/>
    </vehicle>
    <vehicle id="OD3_RV.2" type="RV" depart="173.35" departSpeed="10">
        <route edges="-2 -1"/>
    </vehicle>
    <vehicle id="OD1_NV.5" type="NV" depart="173.44" departSpeed="10">
        <route edges="1 -3"/>
    </vehicle>
    <vehicle id="OD9_NV.11" type="NV" depart="174.03" departSpeed="10">
        <route edges="-4 -1"/>
    </vehicle>
    <vehicle id="OD9_RV.1" type="RV" depart="174.36" departSpeed="10">
        <route edges="-4 -1"/>
    </vehicle>
    <vehicle id="OD1_NV.6" type="NV" depart="174.48" departSpeed="10">
        <route edges="1 -3"/>
    </vehicle>
    <vehicle id="OD4_NV.13" type="NV" depart="174.84" departSpeed="10">
        <route edges="-2 -3"/>
    </vehicle>
    <vehicle id="OD1_NV.7" type="NV" depart="175.02" departSpeed="10">
        <route edges="1 -3"/>
    </vehicle>
    <vehicle id="OD5_RV.1" type="RV" depart="175.99" departSpeed="10">
        <route edges="-2 4"/>
    </vehicle>
    <vehicle id="OD4_RV.5" type="RV" depart="176.17" departSpeed="10">
        <route edges="-2 -3"/>
    </vehicle>
    <vehicle id="OD7_NV.9" type="NV" depart="178.15" departSpeed="10">
        <route edges="3 2"/>
    </vehicle>
    <vehicle id="OD6_NV.7" type="NV" depart="179.73" departSpeed="10">
        <route edges="3 -1"/>
    </vehicle>
    <vehicle id="OD10_RV.0" type="RV" depart="180.55" departSpeed="10">
        <route edges="-4 2"/>
    </vehicle>
    <vehicle id="OD11_NV.17" type="NV" depart="183.37" departSpeed="10">
        <route edges="-4 -3"/>
    </vehicle>
    <vehicle id="OD7_RV.1" type="RV" depart="183.72" departSpeed="10">
        <route edges="3 2"/>
    </vehicle>
    <vehicle id="OD0_NV.11" type="NV" depart="184.39" departSpeed="10">
        <route edges="1 2"/>
    </vehicle>
    <vehicle id="OD11_RV.1" type="RV" depart="184.56" departSpeed="10">
        <route edges="-4 -3"/>
    </vehicle>
    <vehicle id="OD5_RV.2" type="RV" depart="186.39" departSpeed="10">
        <route edges="-2 4"/>
    </vehicle>
    <vehicle id="OD0_RV.0" type="RV" depart="189.02" departSpeed="10">
        <route edges="1 2"/>
    </vehicle>
    <vehicle id="OD10_RV.1" type="RV" depart="190.36" departSpeed="10">
        <route edges="-4 2"/>
    </vehicle>
    <vehicle id="OD10_RV.2" type="RV" depart="193.08" departSpeed="10">
        <route edges="-4 2"/>
    </vehicle>
    <vehicle id="OD5_RV.3" type="RV" depart="196.21" departSpeed="10">
        <route edges="-2 4"/>
    </vehicle>
    <vehicle id="OD4_NV.14" type="NV" depart="197.51" departSpeed="10">
        <route edges="-2 -3"/>
    </vehicle>
    <vehicle id="OD1_NV.8" type="NV" depart="198.26" departSpeed="10">
        <route edges="1 -3"/>
    </vehicle>
    <vehicle id="OD0_NV.12" type="NV" depart="198.47" departSpeed="10">
        <route edges="1 2"/>
    </vehicle>
    <vehicle id="OD11_NV.18" type="NV" depart="198.80" departSpeed="10">
        <route edges="-4 -3"/>
    </vehicle>
    <vehicle id="OD3_NV.15" type="NV" depart="199.87" departSpeed="10">
        <route edges="-2 -1"/>
    </vehicle>
    <vehicle id="OD7_NV.10" type="NV" depart="200.55" departSpeed="10">
        <route edges="3 2"/>
    </vehicle>
    <vehicle id="OD8_NV.13" type="NV" depart="200.66" departSpeed="10">
        <route edges="3 4"/>
    </vehicle>
    <vehicle id="OD6_NV.8" type="NV" depart="202.05" departSpeed="10">
        <route edges="3 -1"/>
    </vehicle>
    <vehicle id="OD8_NV.14" type="NV" depart="202.08" departSpeed="10">
        <route edges="3 4"/>
    </vehicle>
    <vehicle id="OD6_NV.9" type="NV" depart="202.41" departSpeed="10">
        <route edges="3 -1"/>
    </vehicle>
    <vehicle id="OD8_NV.15" type="NV" depart="202.64" departSpeed="10">
        <route edges="3 4"/>
    </vehicle>
    <vehicle id="OD7_NV.11" type="NV" depart="204.68" departSpeed="10">
        <route edges="3 2"/>
    </vehicle>
    <vehicle id="OD8_NV.16" type="NV" depart="205.42" departSpeed="10">
        <route edges="3 4"/>
    </vehicle>
    <vehicle id="OD1_NV.9" type="NV" depart="206.33" departSpeed="10">
        <route edges="1 -3"/>
    </vehicle>
    <vehicle id="OD10_NV.11" type="NV" depart="206.38" departSpeed="10">
        <route edges="-4 2"/>
    </vehicle>
    <vehicle id="OD1_NV.10" type="NV" depart="206.53" departSpeed="10">
        <route edges="1 -3"/>
    </vehicle>
    <vehicle id="OD2_NV.8" type="NV" depart="207.17" departSpeed="10">
        <route edges="1 4"/>
    </vehicle>
    <vehicle id="OD7_NV.12" type="NV" depart="208.87" departSpeed="10">
        <route edges="3 2"/>
    </vehicle>
    <vehicle id="OD4_NV.15" type="NV" depart="209.09" departSpeed="10">
        <route edges="-2 -3"/>
    </vehicle>
    <vehicle id="OD9_NV.12" type="NV" depart="209.20" departSpeed="10">
        <route edges="-4 -1"/>
    </vehicle>
    <vehicle id="OD10_NV.12" type="NV" depart="209.47" departSpeed="10">
        <route edges="-4 2"/>
    </vehicle>
    <vehicle id="OD10_NV.13" type="NV" depart="210.98" departSpeed="10">
        <route edges="-4 2"/>
    </vehicle>
    <vehicle id="OD1_RV.5" type="RV" depart="212.19" departSpeed="10">
        <route edges="1 -3"/>
    </vehicle>
    <vehicle id="OD0_RV.1" type="RV" depart="212.98" departSpeed="10">
        <route edges="1 2"/>
    </vehicle>
    <vehicle id="OD1_RV.6" type="RV" depart="213.06" departSpeed="10">
        <route edges="1 -3"/>
    </vehicle>
    <vehicle id="OD8_NV.17" type="NV" depart="214.89" departSpeed="10">
        <route edges="3 4"/>
    </vehicle>
    <vehicle id="OD7_NV.13" type="NV" depart="215.36" departSpeed="10">
        <route edges="3 2"/>
    </vehicle>
    <vehicle id="OD1_RV.7" type="RV" depart="215.43" departSpeed="10">
        <route edges="1 -3"/>
    </vehicle>
    <vehicle id="OD10_NV.14" type="NV" depart="216.24" departSpeed="10">
        <route edges="-4 2"/>
    </vehicle>
    <vehicle id="OD3_RV.3" type="RV" depart="217.97" departSpeed="10">
        <route edges="-2 -1"/>
    </vehicle>
    <vehicle id="OD7_RV.2" type="RV" depart="218.28" departSpeed="10">
        <route edges="3 2"/>
    </vehicle>
    <vehicle id="OD4_NV.16" type="NV" depart="220.72" departSpeed="10">
        <route edges="-2 -3"/>
    </vehicle>
    <vehicle id="OD5_NV.7" type="NV" depart="220.93" departSpeed="10">
        <route edges="-2 4"/>
    </vehicle>
    <vehicle id="OD4_NV.17" type="NV" depart="221.56" departSpeed="10">
        <route edges="-2 -3"/>
    </vehicle>
    <vehicle id="OD3_NV.16" type="NV" depart="221.62" departSpeed="10">
        <route edges="-2 -1"/>
    </vehicle>
    <vehicle id="OD11_NV.19" type="NV" depart="221.91" departSpeed="10">
        <route edges="-4 -3"/>
    </vehicle>
    <vehicle id="OD3_NV.17" type="NV" depart="222.72" departSpeed="10">
        <route edges="-2 -1"/>
    </vehicle>
    <vehicle id="OD11_NV.20" type="NV" depart="223.16" departSpeed="10">
        <route edges="-4 -3"/>
    </vehicle>
    <vehicle id="OD10_NV.15" type="NV" depart="224.04" departSpeed="10">
        <route edges="-4 2"/>
    </vehicle>
    <vehicle id="OD11_NV.21" type="NV" depart="224.84" departSpeed="10">
        <route edges="-4 -3"/>
    </vehicle>
    <vehicle id="OD10_NV.16" type="NV" depart="225.68" departSpeed="10">
        <route edges="-4 2"/>
    </vehicle>
    <vehicle id="OD2_RV.3" type="RV" depart="226.87" departSpeed="10">
        <route edges="1 4"/>
    </vehicle>
    <vehicle id="OD10_NV.17" type="NV" depart="227.31" departSpeed="10">
        <route edges="-4 2"/>
    </vehicle>
    <vehicle id="OD0_NV.13" type="NV" depart="227.90" departSpeed="10">
        <route edges="1 2"/>
    </vehicle>
    <vehicle id="OD3_NV.18" type="NV" depart="229.66" departSpeed="10">
        <route edges="-2 -1"/>
    </vehicle>
    <vehicle id="OD1_NV.11" type="NV" depart="230.85" departSpeed="10">
        <route edges="1 -3"/>
    </vehicle>
    <vehicle id="OD1_NV.12" type="NV" depart="235.46" departSpeed="10">
        <route edges="1 -3"/>
    </vehicle>
    <vehicle id="OD6_RV.3" type="RV" depart="235.62" departSpeed="10">
        <route edges="3 -1"/>
    </vehicle>
    <vehicle id="OD5_NV.8" type="NV" depart="236.03" departSpeed="10">
        <route edges="-2 4"/>
    </vehicle>
    <vehicle id="OD3_NV.19" type="NV" depart="238.83" departSpeed="10">
        <route edges="-2 -1"/>
    </vehicle>
    <vehicle id="OD8_RV.3" type="RV" depart="238.84" departSpeed="10">
        <route edges="3 4"/>
    </vehicle>
    <vehicle id="OD10_RV.3" type="RV" depart="239.49" departSpeed="10">
        <route edges="-4 2"/>
    </vehicle>
    <vehicle id="OD8_NV.18" type="NV" depart="240.32" departSpeed="10">
        <route edges="3 4"/>
    </vehicle>
    <vehicle id="OD0_NV.14" type="NV" depart="240.59" departSpeed="10">
        <route edges="1 2"/>
    </vehicle>
    <vehicle id="OD3_NV.20" type="NV" depart="242.98" departSpeed="10">
        <route edges="-2 -1"/>
    </vehicle>
    <vehicle id="OD6_NV.10" type="NV" depart="244.31" departSpeed="10">
        <route edges="3 -1"/>
    </vehicle>
    <vehicle id="OD1_NV.13" type="NV" depart="246.16" departSpeed="10">
        <route edges="1 -3"/>
    </vehicle>
    <vehicle id="OD4_RV.6" type="RV" depart="246.43" departSpeed="10">
        <route edges="-2 -3"/>
    </vehicle>
    <vehicle id="OD0_NV.15" type="NV" depart="246.70" departSpeed="10">
        <route edges="1 2"/>
    </vehicle>
    <vehicle id="OD11_RV.2" type="RV" depart="247.71" departSpeed="10">
        <route edges="-4 -3"/>
    </vehicle>
    <vehicle id="OD8_NV.19" type="NV" depart="248.05" departSpeed="10">
        <route edges="3 4"/>
    </vehicle>
    <vehicle id="OD11_NV.22" type="NV" depart="251.02" departSpeed="10">
        <route edges="-4 -3"/>
    </vehicle>
    <vehicle id="OD4_NV.18" type="NV" depart="251.76" departSpeed="10">
        <route edges="-2 -3"/>
    </vehicle>
    <vehicle id="OD4_NV.19" type="NV" depart="251.83" departSpeed="10">
        <route edges="-2 -3"/>
    </vehicle>
    <vehicle id="OD9_NV.13" type="NV" depart="252.60" departSpeed="10">
        <route edges="-4 -1"/>
    </vehicle>
    <vehicle id="OD1_NV.14" type="NV" depart="252.71" departSpeed="10">
        <route edges="1 -3"/>
    </vehicle>
    <vehicle id="OD6_NV.11" type="NV" depart="253.21" departSpeed="10">
        <route edges="3 -1"/>
    </vehicle>
    <vehicle id="OD1_NV.15" type="NV" depart="253.35" departSpeed="10">
        <route edges="1 -3"/>
    </vehicle>